
---------- Begin Simulation Statistics ----------
simSeconds                                   0.001000                       # Number of seconds simulated (Second)
simTicks                                   1000006687                       # Number of ticks simulated (Tick)
finalTick                                  1000006687                       # Number of ticks from beginning of simulation (restored from checkpoints and never reset) (Tick)
simFreq                                  1000000000000                       # The number of ticks per simulated second ((Tick/Second))
hostSeconds                                      0.18                       # Real time elapsed on the host (Second)
hostTickRate                               5518156246                       # The number of ticks simulated per host second (ticks/s) ((Tick/Second))
hostMemory                                    8488252                       # Number of bytes of host memory used (Byte)
system.clk_domain.clock                           250                       # Clock period in ticks (Tick)
system.clk_domain.voltage_domain.voltage            1                       # Voltage in Volts (Volt)
system.generator.numSuppressed                      0                       # Number of suppressed packets to non-memory space (Count)
system.generator.numPackets                     94033                       # Number of packets generated (Count)
system.generator.numRetries                     93969                       # Number of retries (Count)
system.generator.retryTicks                 999941687                       # Time spent waiting due to back-pressure (Tick)
system.generator.bytesRead                    6013888                       # Number of bytes read (Byte)
system.generator.bytesWritten                       0                       # Number of bytes written (Byte)
system.generator.totalReadLatency         66833198120                       # Total latency of read requests (Tick)
system.generator.totalWriteLatency                  0                       # Total latency of write requests (Tick)
system.generator.totalReads                     93967                       # Total num of reads (Count)
system.generator.totalWrites                        0                       # Total num of writes (Count)
system.generator.avgReadLatency          711241.160407                       # Avg latency of read requests ((Tick/Count))
system.generator.avgWriteLatency                  nan                       # Avg latency of write requests ((Tick/Count))
system.generator.readBW                  6013847785.399859                       # Read bandwidth ((Byte/Second))
system.generator.writeBW                            0                       # Write bandwidth ((Byte/Second))
system.generator.power_state.pwrStateResidencyTicks::UNDEFINED   1000006687                       # Cumulative time (in ticks) in various power states (Tick)
system.mem_ctrl.avgPriority_generator::samples     94033.00                       # Average QoS priority value for accepted requests (Count)
system.mem_ctrl.priorityMinLatency       0.000000292504                       # per QoS priority minimum request to response latency (Second)
system.mem_ctrl.priorityMaxLatency       0.000010517628                       # per QoS priority maximum request to response latency (Second)
system.mem_ctrl.numReadWriteTurnArounds             0                       # Number of turnarounds from READ to WRITE (Count)
system.mem_ctrl.numWriteReadTurnArounds             0                       # Number of turnarounds from WRITE to READ (Count)
system.mem_ctrl.numStayReadState               269886                       # Number of times bus staying in READ state (Count)
system.mem_ctrl.numStayWriteState                   0                       # Number of times bus staying in WRITE state (Count)
system.mem_ctrl.readReqs                        94033                       # Number of read requests accepted (Count)
system.mem_ctrl.writeReqs                           0                       # Number of write requests accepted (Count)
system.mem_ctrl.readBursts                      94033                       # Number of controller read bursts, including those serviced by the write queue (Count)
system.mem_ctrl.writeBursts                         0                       # Number of controller write bursts, including those merged in the write queue (Count)
system.mem_ctrl.servicedByWrQ                       0                       # Number of controller read bursts serviced by the write queue (Count)
system.mem_ctrl.mergedWrBursts                      0                       # Number of controller write bursts merged with an existing one (Count)
system.mem_ctrl.neitherReadNorWriteReqs             0                       # Number of requests that are neither read nor write (Count)
system.mem_ctrl.avgRdQLen                       64.00                       # Average read queue length when enqueuing ((Count/Tick))
system.mem_ctrl.avgWrQLen                        0.00                       # Average write queue length when enqueuing ((Count/Tick))
system.mem_ctrl.numRdRetry                      93969                       # Number of times read queue was full causing retry (Count)
system.mem_ctrl.numWrRetry                          0                       # Number of times write queue was full causing retry (Count)
system.mem_ctrl.readPktSize::0                      0                       # Read request sizes (log2) (Count)
system.mem_ctrl.readPktSize::1                      0                       # Read request sizes (log2) (Count)
system.mem_ctrl.readPktSize::2                      0                       # Read request sizes (log2) (Count)
system.mem_ctrl.readPktSize::3                      0                       # Read request sizes (log2) (Count)
system.mem_ctrl.readPktSize::4                      0                       # Read request sizes (log2) (Count)
system.mem_ctrl.readPktSize::5                      0                       # Read request sizes (log2) (Count)
system.mem_ctrl.readPktSize::6                  94033                       # Read request sizes (log2) (Count)
system.mem_ctrl.writePktSize::0                     0                       # Write request sizes (log2) (Count)
system.mem_ctrl.writePktSize::1                     0                       # Write request sizes (log2) (Count)
system.mem_ctrl.writePktSize::2                     0                       # Write request sizes (log2) (Count)
system.mem_ctrl.writePktSize::3                     0                       # Write request sizes (log2) (Count)
system.mem_ctrl.writePktSize::4                     0                       # Write request sizes (log2) (Count)
system.mem_ctrl.writePktSize::5                     0                       # Write request sizes (log2) (Count)
system.mem_ctrl.writePktSize::6                     0                       # Write request sizes (log2) (Count)
system.mem_ctrl.rdQLenPdf::0                        1                       # What read queue length does an incoming req see (Count)
system.mem_ctrl.rdQLenPdf::1                        1                       # What read queue length does an incoming req see (Count)
system.mem_ctrl.rdQLenPdf::2                        1                       # What read queue length does an incoming req see (Count)
system.mem_ctrl.rdQLenPdf::3                        1                       # What read queue length does an incoming req see (Count)
system.mem_ctrl.rdQLenPdf::4                        1                       # What read queue length does an incoming req see (Count)
system.mem_ctrl.rdQLenPdf::5                        1                       # What read queue length does an incoming req see (Count)
system.mem_ctrl.rdQLenPdf::6                        1                       # What read queue length does an incoming req see (Count)
system.mem_ctrl.rdQLenPdf::7                        1                       # What read queue length does an incoming req see (Count)
system.mem_ctrl.rdQLenPdf::8                        1                       # What read queue length does an incoming req see (Count)
system.mem_ctrl.rdQLenPdf::9                        1                       # What read queue length does an incoming req see (Count)
system.mem_ctrl.rdQLenPdf::10                       1                       # What read queue length does an incoming req see (Count)
system.mem_ctrl.rdQLenPdf::11                       1                       # What read queue length does an incoming req see (Count)
system.mem_ctrl.rdQLenPdf::12                       1                       # What read queue length does an incoming req see (Count)
system.mem_ctrl.rdQLenPdf::13                       1                       # What read queue length does an incoming req see (Count)
system.mem_ctrl.rdQLenPdf::14                       1                       # What read queue length does an incoming req see (Count)
system.mem_ctrl.rdQLenPdf::15                       1                       # What read queue length does an incoming req see (Count)
system.mem_ctrl.rdQLenPdf::16                       1                       # What read queue length does an incoming req see (Count)
system.mem_ctrl.rdQLenPdf::17                       1                       # What read queue length does an incoming req see (Count)
system.mem_ctrl.rdQLenPdf::18                       1                       # What read queue length does an incoming req see (Count)
system.mem_ctrl.rdQLenPdf::19                       1                       # What read queue length does an incoming req see (Count)
system.mem_ctrl.rdQLenPdf::20                       1                       # What read queue length does an incoming req see (Count)
system.mem_ctrl.rdQLenPdf::21                       1                       # What read queue length does an incoming req see (Count)
system.mem_ctrl.rdQLenPdf::22                       1                       # What read queue length does an incoming req see (Count)
system.mem_ctrl.rdQLenPdf::23                       1                       # What read queue length does an incoming req see (Count)
system.mem_ctrl.rdQLenPdf::24                       1                       # What read queue length does an incoming req see (Count)
system.mem_ctrl.rdQLenPdf::25                       1                       # What read queue length does an incoming req see (Count)
system.mem_ctrl.rdQLenPdf::26                       1                       # What read queue length does an incoming req see (Count)
system.mem_ctrl.rdQLenPdf::27                       1                       # What read queue length does an incoming req see (Count)
system.mem_ctrl.rdQLenPdf::28                       1                       # What read queue length does an incoming req see (Count)
system.mem_ctrl.rdQLenPdf::29                       1                       # What read queue length does an incoming req see (Count)
system.mem_ctrl.rdQLenPdf::30                       1                       # What read queue length does an incoming req see (Count)
system.mem_ctrl.rdQLenPdf::31                       1                       # What read queue length does an incoming req see (Count)
system.mem_ctrl.rdQLenPdf::32                       1                       # What read queue length does an incoming req see (Count)
system.mem_ctrl.rdQLenPdf::33                       1                       # What read queue length does an incoming req see (Count)
system.mem_ctrl.rdQLenPdf::34                       1                       # What read queue length does an incoming req see (Count)
system.mem_ctrl.rdQLenPdf::35                       1                       # What read queue length does an incoming req see (Count)
system.mem_ctrl.rdQLenPdf::36                       1                       # What read queue length does an incoming req see (Count)
system.mem_ctrl.rdQLenPdf::37                       1                       # What read queue length does an incoming req see (Count)
system.mem_ctrl.rdQLenPdf::38                       1                       # What read queue length does an incoming req see (Count)
system.mem_ctrl.rdQLenPdf::39                       1                       # What read queue length does an incoming req see (Count)
system.mem_ctrl.rdQLenPdf::40                       1                       # What read queue length does an incoming req see (Count)
system.mem_ctrl.rdQLenPdf::41                       1                       # What read queue length does an incoming req see (Count)
system.mem_ctrl.rdQLenPdf::42                       1                       # What read queue length does an incoming req see (Count)
system.mem_ctrl.rdQLenPdf::43                       1                       # What read queue length does an incoming req see (Count)
system.mem_ctrl.rdQLenPdf::44                       1                       # What read queue length does an incoming req see (Count)
system.mem_ctrl.rdQLenPdf::45                       1                       # What read queue length does an incoming req see (Count)
system.mem_ctrl.rdQLenPdf::46                       1                       # What read queue length does an incoming req see (Count)
system.mem_ctrl.rdQLenPdf::47                       1                       # What read queue length does an incoming req see (Count)
system.mem_ctrl.rdQLenPdf::48                       1                       # What read queue length does an incoming req see (Count)
system.mem_ctrl.rdQLenPdf::49                       1                       # What read queue length does an incoming req see (Count)
system.mem_ctrl.rdQLenPdf::50                       1                       # What read queue length does an incoming req see (Count)
system.mem_ctrl.rdQLenPdf::51                       1                       # What read queue length does an incoming req see (Count)
system.mem_ctrl.rdQLenPdf::52                       1                       # What read queue length does an incoming req see (Count)
system.mem_ctrl.rdQLenPdf::53                       1                       # What read queue length does an incoming req see (Count)
system.mem_ctrl.rdQLenPdf::54                       1                       # What read queue length does an incoming req see (Count)
system.mem_ctrl.rdQLenPdf::55                       1                       # What read queue length does an incoming req see (Count)
system.mem_ctrl.rdQLenPdf::56                       1                       # What read queue length does an incoming req see (Count)
system.mem_ctrl.rdQLenPdf::57                       1                       # What read queue length does an incoming req see (Count)
system.mem_ctrl.rdQLenPdf::58                       1                       # What read queue length does an incoming req see (Count)
system.mem_ctrl.rdQLenPdf::59                       1                       # What read queue length does an incoming req see (Count)
system.mem_ctrl.rdQLenPdf::60                       1                       # What read queue length does an incoming req see (Count)
system.mem_ctrl.rdQLenPdf::61                       1                       # What read queue length does an incoming req see (Count)
system.mem_ctrl.rdQLenPdf::62                       1                       # What read queue length does an incoming req see (Count)
system.mem_ctrl.rdQLenPdf::63                   93970                       # What read queue length does an incoming req see (Count)
system.mem_ctrl.wrQLenPdf::0                        0                       # What write queue length does an incoming req see (Count)
system.mem_ctrl.wrQLenPdf::1                        0                       # What write queue length does an incoming req see (Count)
system.mem_ctrl.wrQLenPdf::2                        0                       # What write queue length does an incoming req see (Count)
system.mem_ctrl.wrQLenPdf::3                        0                       # What write queue length does an incoming req see (Count)
system.mem_ctrl.wrQLenPdf::4                        0                       # What write queue length does an incoming req see (Count)
system.mem_ctrl.wrQLenPdf::5                        0                       # What write queue length does an incoming req see (Count)
system.mem_ctrl.wrQLenPdf::6                        0                       # What write queue length does an incoming req see (Count)
system.mem_ctrl.wrQLenPdf::7                        0                       # What write queue length does an incoming req see (Count)
system.mem_ctrl.wrQLenPdf::8                        0                       # What write queue length does an incoming req see (Count)
system.mem_ctrl.wrQLenPdf::9                        0                       # What write queue length does an incoming req see (Count)
system.mem_ctrl.wrQLenPdf::10                       0                       # What write queue length does an incoming req see (Count)
system.mem_ctrl.wrQLenPdf::11                       0                       # What write queue length does an incoming req see (Count)
system.mem_ctrl.wrQLenPdf::12                       0                       # What write queue length does an incoming req see (Count)
system.mem_ctrl.wrQLenPdf::13                       0                       # What write queue length does an incoming req see (Count)
system.mem_ctrl.wrQLenPdf::14                       0                       # What write queue length does an incoming req see (Count)
system.mem_ctrl.wrQLenPdf::15                       0                       # What write queue length does an incoming req see (Count)
system.mem_ctrl.wrQLenPdf::16                       0                       # What write queue length does an incoming req see (Count)
system.mem_ctrl.wrQLenPdf::17                       0                       # What write queue length does an incoming req see (Count)
system.mem_ctrl.wrQLenPdf::18                       0                       # What write queue length does an incoming req see (Count)
system.mem_ctrl.wrQLenPdf::19                       0                       # What write queue length does an incoming req see (Count)
system.mem_ctrl.wrQLenPdf::20                       0                       # What write queue length does an incoming req see (Count)
system.mem_ctrl.wrQLenPdf::21                       0                       # What write queue length does an incoming req see (Count)
system.mem_ctrl.wrQLenPdf::22                       0                       # What write queue length does an incoming req see (Count)
system.mem_ctrl.wrQLenPdf::23                       0                       # What write queue length does an incoming req see (Count)
system.mem_ctrl.wrQLenPdf::24                       0                       # What write queue length does an incoming req see (Count)
system.mem_ctrl.wrQLenPdf::25                       0                       # What write queue length does an incoming req see (Count)
system.mem_ctrl.wrQLenPdf::26                       0                       # What write queue length does an incoming req see (Count)
system.mem_ctrl.wrQLenPdf::27                       0                       # What write queue length does an incoming req see (Count)
system.mem_ctrl.wrQLenPdf::28                       0                       # What write queue length does an incoming req see (Count)
system.mem_ctrl.wrQLenPdf::29                       0                       # What write queue length does an incoming req see (Count)
system.mem_ctrl.wrQLenPdf::30                       0                       # What write queue length does an incoming req see (Count)
system.mem_ctrl.wrQLenPdf::31                       0                       # What write queue length does an incoming req see (Count)
system.mem_ctrl.wrQLenPdf::32                       0                       # What write queue length does an incoming req see (Count)
system.mem_ctrl.wrQLenPdf::33                       0                       # What write queue length does an incoming req see (Count)
system.mem_ctrl.wrQLenPdf::34                       0                       # What write queue length does an incoming req see (Count)
system.mem_ctrl.wrQLenPdf::35                       0                       # What write queue length does an incoming req see (Count)
system.mem_ctrl.wrQLenPdf::36                       0                       # What write queue length does an incoming req see (Count)
system.mem_ctrl.wrQLenPdf::37                       0                       # What write queue length does an incoming req see (Count)
system.mem_ctrl.wrQLenPdf::38                       0                       # What write queue length does an incoming req see (Count)
system.mem_ctrl.wrQLenPdf::39                       0                       # What write queue length does an incoming req see (Count)
system.mem_ctrl.wrQLenPdf::40                       0                       # What write queue length does an incoming req see (Count)
system.mem_ctrl.wrQLenPdf::41                       0                       # What write queue length does an incoming req see (Count)
system.mem_ctrl.wrQLenPdf::42                       0                       # What write queue length does an incoming req see (Count)
system.mem_ctrl.wrQLenPdf::43                       0                       # What write queue length does an incoming req see (Count)
system.mem_ctrl.wrQLenPdf::44                       0                       # What write queue length does an incoming req see (Count)
system.mem_ctrl.wrQLenPdf::45                       0                       # What write queue length does an incoming req see (Count)
system.mem_ctrl.wrQLenPdf::46                       0                       # What write queue length does an incoming req see (Count)
system.mem_ctrl.wrQLenPdf::47                       0                       # What write queue length does an incoming req see (Count)
system.mem_ctrl.wrQLenPdf::48                       0                       # What write queue length does an incoming req see (Count)
system.mem_ctrl.wrQLenPdf::49                       0                       # What write queue length does an incoming req see (Count)
system.mem_ctrl.wrQLenPdf::50                       0                       # What write queue length does an incoming req see (Count)
system.mem_ctrl.wrQLenPdf::51                       0                       # What write queue length does an incoming req see (Count)
system.mem_ctrl.wrQLenPdf::52                       0                       # What write queue length does an incoming req see (Count)
system.mem_ctrl.wrQLenPdf::53                       0                       # What write queue length does an incoming req see (Count)
system.mem_ctrl.wrQLenPdf::54                       0                       # What write queue length does an incoming req see (Count)
system.mem_ctrl.wrQLenPdf::55                       0                       # What write queue length does an incoming req see (Count)
system.mem_ctrl.wrQLenPdf::56                       0                       # What write queue length does an incoming req see (Count)
system.mem_ctrl.wrQLenPdf::57                       0                       # What write queue length does an incoming req see (Count)
system.mem_ctrl.wrQLenPdf::58                       0                       # What write queue length does an incoming req see (Count)
system.mem_ctrl.wrQLenPdf::59                       0                       # What write queue length does an incoming req see (Count)
system.mem_ctrl.wrQLenPdf::60                       0                       # What write queue length does an incoming req see (Count)
system.mem_ctrl.wrQLenPdf::61                       0                       # What write queue length does an incoming req see (Count)
system.mem_ctrl.wrQLenPdf::62                       0                       # What write queue length does an incoming req see (Count)
system.mem_ctrl.wrQLenPdf::63                       0                       # What write queue length does an incoming req see (Count)
system.mem_ctrl.wrQLenPdf::64                       0                       # What write queue length does an incoming req see (Count)
system.mem_ctrl.wrQLenPdf::65                       0                       # What write queue length does an incoming req see (Count)
system.mem_ctrl.wrQLenPdf::66                       0                       # What write queue length does an incoming req see (Count)
system.mem_ctrl.wrQLenPdf::67                       0                       # What write queue length does an incoming req see (Count)
system.mem_ctrl.wrQLenPdf::68                       0                       # What write queue length does an incoming req see (Count)
system.mem_ctrl.wrQLenPdf::69                       0                       # What write queue length does an incoming req see (Count)
system.mem_ctrl.wrQLenPdf::70                       0                       # What write queue length does an incoming req see (Count)
system.mem_ctrl.wrQLenPdf::71                       0                       # What write queue length does an incoming req see (Count)
system.mem_ctrl.wrQLenPdf::72                       0                       # What write queue length does an incoming req see (Count)
system.mem_ctrl.wrQLenPdf::73                       0                       # What write queue length does an incoming req see (Count)
system.mem_ctrl.wrQLenPdf::74                       0                       # What write queue length does an incoming req see (Count)
system.mem_ctrl.wrQLenPdf::75                       0                       # What write queue length does an incoming req see (Count)
system.mem_ctrl.wrQLenPdf::76                       0                       # What write queue length does an incoming req see (Count)
system.mem_ctrl.wrQLenPdf::77                       0                       # What write queue length does an incoming req see (Count)
system.mem_ctrl.wrQLenPdf::78                       0                       # What write queue length does an incoming req see (Count)
system.mem_ctrl.wrQLenPdf::79                       0                       # What write queue length does an incoming req see (Count)
system.mem_ctrl.wrQLenPdf::80                       0                       # What write queue length does an incoming req see (Count)
system.mem_ctrl.wrQLenPdf::81                       0                       # What write queue length does an incoming req see (Count)
system.mem_ctrl.wrQLenPdf::82                       0                       # What write queue length does an incoming req see (Count)
system.mem_ctrl.wrQLenPdf::83                       0                       # What write queue length does an incoming req see (Count)
system.mem_ctrl.wrQLenPdf::84                       0                       # What write queue length does an incoming req see (Count)
system.mem_ctrl.wrQLenPdf::85                       0                       # What write queue length does an incoming req see (Count)
system.mem_ctrl.wrQLenPdf::86                       0                       # What write queue length does an incoming req see (Count)
system.mem_ctrl.wrQLenPdf::87                       0                       # What write queue length does an incoming req see (Count)
system.mem_ctrl.wrQLenPdf::88                       0                       # What write queue length does an incoming req see (Count)
system.mem_ctrl.wrQLenPdf::89                       0                       # What write queue length does an incoming req see (Count)
system.mem_ctrl.wrQLenPdf::90                       0                       # What write queue length does an incoming req see (Count)
system.mem_ctrl.wrQLenPdf::91                       0                       # What write queue length does an incoming req see (Count)
system.mem_ctrl.wrQLenPdf::92                       0                       # What write queue length does an incoming req see (Count)
system.mem_ctrl.wrQLenPdf::93                       0                       # What write queue length does an incoming req see (Count)
system.mem_ctrl.wrQLenPdf::94                       0                       # What write queue length does an incoming req see (Count)
system.mem_ctrl.wrQLenPdf::95                       0                       # What write queue length does an incoming req see (Count)
system.mem_ctrl.wrQLenPdf::96                       0                       # What write queue length does an incoming req see (Count)
system.mem_ctrl.wrQLenPdf::97                       0                       # What write queue length does an incoming req see (Count)
system.mem_ctrl.wrQLenPdf::98                       0                       # What write queue length does an incoming req see (Count)
system.mem_ctrl.wrQLenPdf::99                       0                       # What write queue length does an incoming req see (Count)
system.mem_ctrl.wrQLenPdf::100                      0                       # What write queue length does an incoming req see (Count)
system.mem_ctrl.wrQLenPdf::101                      0                       # What write queue length does an incoming req see (Count)
system.mem_ctrl.wrQLenPdf::102                      0                       # What write queue length does an incoming req see (Count)
system.mem_ctrl.wrQLenPdf::103                      0                       # What write queue length does an incoming req see (Count)
system.mem_ctrl.wrQLenPdf::104                      0                       # What write queue length does an incoming req see (Count)
system.mem_ctrl.wrQLenPdf::105                      0                       # What write queue length does an incoming req see (Count)
system.mem_ctrl.wrQLenPdf::106                      0                       # What write queue length does an incoming req see (Count)
system.mem_ctrl.wrQLenPdf::107                      0                       # What write queue length does an incoming req see (Count)
system.mem_ctrl.wrQLenPdf::108                      0                       # What write queue length does an incoming req see (Count)
system.mem_ctrl.wrQLenPdf::109                      0                       # What write queue length does an incoming req see (Count)
system.mem_ctrl.wrQLenPdf::110                      0                       # What write queue length does an incoming req see (Count)
system.mem_ctrl.wrQLenPdf::111                      0                       # What write queue length does an incoming req see (Count)
system.mem_ctrl.wrQLenPdf::112                      0                       # What write queue length does an incoming req see (Count)
system.mem_ctrl.wrQLenPdf::113                      0                       # What write queue length does an incoming req see (Count)
system.mem_ctrl.wrQLenPdf::114                      0                       # What write queue length does an incoming req see (Count)
system.mem_ctrl.wrQLenPdf::115                      0                       # What write queue length does an incoming req see (Count)
system.mem_ctrl.wrQLenPdf::116                      0                       # What write queue length does an incoming req see (Count)
system.mem_ctrl.wrQLenPdf::117                      0                       # What write queue length does an incoming req see (Count)
system.mem_ctrl.wrQLenPdf::118                      0                       # What write queue length does an incoming req see (Count)
system.mem_ctrl.wrQLenPdf::119                      0                       # What write queue length does an incoming req see (Count)
system.mem_ctrl.wrQLenPdf::120                      0                       # What write queue length does an incoming req see (Count)
system.mem_ctrl.wrQLenPdf::121                      0                       # What write queue length does an incoming req see (Count)
system.mem_ctrl.wrQLenPdf::122                      0                       # What write queue length does an incoming req see (Count)
system.mem_ctrl.wrQLenPdf::123                      0                       # What write queue length does an incoming req see (Count)
system.mem_ctrl.wrQLenPdf::124                      0                       # What write queue length does an incoming req see (Count)
system.mem_ctrl.wrQLenPdf::125                      0                       # What write queue length does an incoming req see (Count)
system.mem_ctrl.wrQLenPdf::126                      0                       # What write queue length does an incoming req see (Count)
system.mem_ctrl.wrQLenPdf::127                      0                       # What write queue length does an incoming req see (Count)
system.mem_ctrl.bytesReadWrQ                        0                       # Total number of bytes read from write queue (Byte)
system.mem_ctrl.bytesReadSys                  6018112                       # Total read bytes from the system interface side (Byte)
system.mem_ctrl.bytesWrittenSys                     0                       # Total written bytes from the system interface side (Byte)
system.mem_ctrl.avgRdBWSys               6018071757.15416050                       # Average system read bandwidth in Byte/s ((Byte/Second))
system.mem_ctrl.avgWrBWSys                 0.00000000                       # Average system write bandwidth in Byte/s ((Byte/Second))
system.mem_ctrl.totGap                     1000005687                       # Total gap between requests (Tick)
system.mem_ctrl.avgGap                       10634.62                       # Average gap between requests ((Tick/Count))
system.mem_ctrl.requestorReadBytes::generator      6014080                       # Per-requestor bytes read from memory (Byte)
system.mem_ctrl.requestorReadRate::generator 6014039784.115963935852                       # Per-requestor bytes read from memory rate ((Byte/Second))
system.mem_ctrl.requestorReadAccesses::generator        94033                       # Per-requestor read serviced memory accesses (Count)
system.mem_ctrl.requestorReadTotalLat::generator  63956572150                       # Per-requestor read total memory access latency (Tick)
system.mem_ctrl.requestorReadAvgLat::generator    680150.29                       # Per-requestor read average memory access latency ((Tick/Count))
system.mem_ctrl.dram.bytesRead::generator      6014016                       # Number of bytes read from this memory (Byte)
system.mem_ctrl.dram.bytesRead::total         6014016                       # Number of bytes read from this memory (Byte)
system.mem_ctrl.dram.numReads::generator        93969                       # Number of read requests responded to by this memory (Count)
system.mem_ctrl.dram.numReads::total            93969                       # Number of read requests responded to by this memory (Count)
system.mem_ctrl.dram.bwRead::generator     6013975785                       # Total read bandwidth from this memory ((Byte/Second))
system.mem_ctrl.dram.bwRead::total         6013975785                       # Total read bandwidth from this memory ((Byte/Second))
system.mem_ctrl.dram.bwTotal::generator    6013975785                       # Total bandwidth to/from this memory ((Byte/Second))
system.mem_ctrl.dram.bwTotal::total        6013975785                       # Total bandwidth to/from this memory ((Byte/Second))
system.mem_ctrl.dram.readBursts                 93970                       # Number of NVM read bursts (Count)
system.mem_ctrl.dram.writeBursts                    0                       # Number of NVM write bursts (Count)
system.mem_ctrl.dram.perBankRdBursts::0          5811                       # Per bank write bursts (Count)
system.mem_ctrl.dram.perBankRdBursts::1          6004                       # Per bank write bursts (Count)
system.mem_ctrl.dram.perBankRdBursts::2          5683                       # Per bank write bursts (Count)
system.mem_ctrl.dram.perBankRdBursts::3          5869                       # Per bank write bursts (Count)
system.mem_ctrl.dram.perBankRdBursts::4          5769                       # Per bank write bursts (Count)
system.mem_ctrl.dram.perBankRdBursts::5          5967                       # Per bank write bursts (Count)
system.mem_ctrl.dram.perBankRdBursts::6          5939                       # Per bank write bursts (Count)
system.mem_ctrl.dram.perBankRdBursts::7          5838                       # Per bank write bursts (Count)
system.mem_ctrl.dram.perBankRdBursts::8          5895                       # Per bank write bursts (Count)
system.mem_ctrl.dram.perBankRdBursts::9          5823                       # Per bank write bursts (Count)
system.mem_ctrl.dram.perBankRdBursts::10         5803                       # Per bank write bursts (Count)
system.mem_ctrl.dram.perBankRdBursts::11         5760                       # Per bank write bursts (Count)
system.mem_ctrl.dram.perBankRdBursts::12         6005                       # Per bank write bursts (Count)
system.mem_ctrl.dram.perBankRdBursts::13         6035                       # Per bank write bursts (Count)
system.mem_ctrl.dram.perBankRdBursts::14         5815                       # Per bank write bursts (Count)
system.mem_ctrl.dram.perBankRdBursts::15         5954                       # Per bank write bursts (Count)
system.mem_ctrl.dram.perBankWrBursts::0             0                       # Per bank write bursts (Count)
system.mem_ctrl.dram.perBankWrBursts::1             0                       # Per bank write bursts (Count)
system.mem_ctrl.dram.perBankWrBursts::2             0                       # Per bank write bursts (Count)
system.mem_ctrl.dram.perBankWrBursts::3             0                       # Per bank write bursts (Count)
system.mem_ctrl.dram.perBankWrBursts::4             0                       # Per bank write bursts (Count)
system.mem_ctrl.dram.perBankWrBursts::5             0                       # Per bank write bursts (Count)
system.mem_ctrl.dram.perBankWrBursts::6             0                       # Per bank write bursts (Count)
system.mem_ctrl.dram.perBankWrBursts::7             0                       # Per bank write bursts (Count)
system.mem_ctrl.dram.perBankWrBursts::8             0                       # Per bank write bursts (Count)
system.mem_ctrl.dram.perBankWrBursts::9             0                       # Per bank write bursts (Count)
system.mem_ctrl.dram.perBankWrBursts::10            0                       # Per bank write bursts (Count)
system.mem_ctrl.dram.perBankWrBursts::11            0                       # Per bank write bursts (Count)
system.mem_ctrl.dram.perBankWrBursts::12            0                       # Per bank write bursts (Count)
system.mem_ctrl.dram.perBankWrBursts::13            0                       # Per bank write bursts (Count)
system.mem_ctrl.dram.perBankWrBursts::14            0                       # Per bank write bursts (Count)
system.mem_ctrl.dram.perBankWrBursts::15            0                       # Per bank write bursts (Count)
system.mem_ctrl.dram.totQLat              62312848910                       # Total ticks spent queuing (Tick)
system.mem_ctrl.dram.totBusLat              313108040                       # Total ticks spent in databus transfers (Tick)
system.mem_ctrl.dram.totMemAccLat         63956572150                       # Total ticks spent from burst creation until serviced by the NVM (Tick)
system.mem_ctrl.dram.avgQLat                663114.28                       # Average queueing delay per NVM burst ((Tick/Count))
system.mem_ctrl.dram.avgBusLat                3332.00                       # Average bus latency per NVM burst ((Tick/Count))
system.mem_ctrl.dram.avgMemAccLat           680606.28                       # Average memory access latency per NVM burst ((Tick/Count))
system.mem_ctrl.dram.avgRdBW                  6014.04                       # Average DRAM read bandwidth in MiBytes/s ((Byte/Second))
system.mem_ctrl.dram.avgWrBW                     0.00                       # Average DRAM write bandwidth in MiBytes/s ((Byte/Second))
system.mem_ctrl.dram.peakBW                  19207.00                       # Theoretical peak bandwidth in MiByte/s ((Byte/Second))
system.mem_ctrl.dram.busUtil                    31.31                       # NVM Data bus utilization in percentage (Ratio)
system.mem_ctrl.dram.busUtilRead                31.31                       # NVM Data bus read utilization in percentage (Ratio)
system.mem_ctrl.dram.busUtilWrite                0.00                       # NVM Data bus write utilization in percentage (Ratio)
system.mem_ctrl.dram.pendingReads::samples        93970                       # Reads issued to NVM for which data has not been transferred (Count)
system.mem_ctrl.dram.pendingReads::mean     61.286262                       # Reads issued to NVM for which data has not been transferred (Count)
system.mem_ctrl.dram.pendingReads::gmean    61.271706                       # Reads issued to NVM for which data has not been transferred (Count)
system.mem_ctrl.dram.pendingReads::stdev     1.330215                       # Reads issued to NVM for which data has not been transferred (Count)
system.mem_ctrl.dram.pendingReads::57             449      0.48%      0.48% # Reads issued to NVM for which data has not been transferred (Count)
system.mem_ctrl.dram.pendingReads::58            2164      2.30%      2.78% # Reads issued to NVM for which data has not been transferred (Count)
system.mem_ctrl.dram.pendingReads::59            6870      7.31%     10.09% # Reads issued to NVM for which data has not been transferred (Count)
system.mem_ctrl.dram.pendingReads::60           15545     16.54%     26.63% # Reads issued to NVM for which data has not been transferred (Count)
system.mem_ctrl.dram.pendingReads::61           24378     25.94%     52.58% # Reads issued to NVM for which data has not been transferred (Count)
system.mem_ctrl.dram.pendingReads::62           24655     26.24%     78.81% # Reads issued to NVM for which data has not been transferred (Count)
system.mem_ctrl.dram.pendingReads::63           19909     21.19%    100.00% # Reads issued to NVM for which data has not been transferred (Count)
system.mem_ctrl.dram.pendingReads::total        93970                       # Reads issued to NVM for which data has not been transferred (Count)
system.mem_ctrl.dram.bytesPerBank::samples        94032                       # Bytes read within a bank before loading new bank (Byte)
system.mem_ctrl.dram.bytesPerBank::mean     64.000681                       # Bytes read within a bank before loading new bank (Byte)
system.mem_ctrl.dram.bytesPerBank::gmean    64.000472                       # Bytes read within a bank before loading new bank (Byte)
system.mem_ctrl.dram.bytesPerBank::stdev     0.208709                       # Bytes read within a bank before loading new bank (Byte)
system.mem_ctrl.dram.bytesPerBank::64           94031    100.00%    100.00% # Bytes read within a bank before loading new bank (Byte)
system.mem_ctrl.dram.bytesPerBank::128              1      0.00%    100.00% # Bytes read within a bank before loading new bank (Byte)
system.mem_ctrl.dram.bytesPerBank::total        94032                       # Bytes read within a bank before loading new bank (Byte)
system.mem_ctrl.dram.power_state.pwrStateResidencyTicks::UNDEFINED   1000006687                       # Cumulative time (in ticks) in various power states (Tick)
system.mem_ctrl.power_state.pwrStateResidencyTicks::UNDEFINED   1000006687                       # Cumulative time (in ticks) in various power states (Tick)
system.workload.inst.arm                            0                       # number of arm instructions executed (Count)
system.workload.inst.quiesce                        0                       # number of quiesce instructions executed (Count)

---------- End Simulation Statistics   ----------
