
---------- Begin Simulation Statistics ----------
simSeconds                                   0.001000                       # Number of seconds simulated (Second)
simTicks                                   1000020674                       # Number of ticks simulated (Tick)
finalTick                                  1000020674                       # Number of ticks from beginning of simulation (restored from checkpoints and never reset) (Tick)
simFreq                                  1000000000000                       # The number of ticks per simulated second ((Tick/Second))
hostSeconds                                      1.47                       # Real time elapsed on the host (Second)
hostTickRate                                679002904                       # The number of ticks simulated per host second (ticks/s) ((Tick/Second))
hostMemory                                    8488256                       # Number of bytes of host memory used (Byte)
system.clk_domain.clock                           250                       # Clock period in ticks (Tick)
system.clk_domain.voltage_domain.voltage            1                       # Voltage in Volts (Volt)
system.generator.numSuppressed                      0                       # Number of suppressed packets to non-memory space (Count)
system.generator.numPackets                    239342                       # Number of packets generated (Count)
system.generator.numRetries                    110217                       # Number of retries (Count)
system.generator.retryTicks                 866341696                       # Time spent waiting due to back-pressure (Tick)
system.generator.bytesRead                    7584256                       # Number of bytes read (Byte)
system.generator.bytesWritten                 7731264                       # Number of bytes written (Byte)
system.generator.totalReadLatency         38125068936                       # Total latency of read requests (Tick)
system.generator.totalWriteLatency         1958643523                       # Total latency of write requests (Tick)
system.generator.totalReads                    118504                       # Total num of reads (Count)
system.generator.totalWrites                   120801                       # Total num of writes (Count)
system.generator.avgReadLatency          321719.679808                       # Avg latency of read requests ((Tick/Count))
system.generator.avgWriteLatency         16213.802228                       # Avg latency of write requests ((Tick/Count))
system.generator.readBW                  7584099206.333008                       # Read bandwidth ((Byte/Second))
system.generator.writeBW                 7731104167.152448                       # Write bandwidth ((Byte/Second))
system.generator.power_state.pwrStateResidencyTicks::UNDEFINED   1000020674                       # Cumulative time (in ticks) in various power states (Tick)
system.mem_ctrl.avgPriority_generator::samples    239341.00                       # Average QoS priority value for accepted requests (Count)
system.mem_ctrl.priorityMinLatency       0.000000044812                       # per QoS priority minimum request to response latency (Second)
system.mem_ctrl.priorityMaxLatency       0.000007618930                       # per QoS priority maximum request to response latency (Second)
system.mem_ctrl.numReadWriteTurnArounds          7542                       # Number of turnarounds from READ to WRITE (Count)
system.mem_ctrl.numWriteReadTurnArounds          7543                       # Number of turnarounds from WRITE to READ (Count)
system.mem_ctrl.numStayReadState               111126                       # Number of times bus staying in READ state (Count)
system.mem_ctrl.numStayWriteState              113212                       # Number of times bus staying in WRITE state (Count)
system.mem_ctrl.readReqs                       118540                       # Number of read requests accepted (Count)
system.mem_ctrl.writeReqs                      120802                       # Number of write requests accepted (Count)
system.mem_ctrl.readBursts                     118540                       # Number of controller read bursts, including those serviced by the write queue (Count)
system.mem_ctrl.writeBursts                    120802                       # Number of controller write bursts, including those merged in the write queue (Count)
system.mem_ctrl.servicedByWrQ                       0                       # Number of controller read bursts serviced by the write queue (Count)
system.mem_ctrl.mergedWrBursts                      1                       # Number of controller write bursts merged with an existing one (Count)
system.mem_ctrl.neitherReadNorWriteReqs             0                       # Number of requests that are neither read nor write (Count)
system.mem_ctrl.avgRdQLen                       36.77                       # Average read queue length when enqueuing ((Count/Tick))
system.mem_ctrl.avgWrQLen                      126.83                       # Average write queue length when enqueuing ((Count/Tick))
system.mem_ctrl.numRdRetry                      15027                       # Number of times read queue was full causing retry (Count)
system.mem_ctrl.numWrRetry                      95190                       # Number of times write queue was full causing retry (Count)
system.mem_ctrl.readPktSize::0                      0                       # Read request sizes (log2) (Count)
system.mem_ctrl.readPktSize::1                      0                       # Read request sizes (log2) (Count)
system.mem_ctrl.readPktSize::2                      0                       # Read request sizes (log2) (Count)
system.mem_ctrl.readPktSize::3                      0                       # Read request sizes (log2) (Count)
system.mem_ctrl.readPktSize::4                      0                       # Read request sizes (log2) (Count)
system.mem_ctrl.readPktSize::5                      0                       # Read request sizes (log2) (Count)
system.mem_ctrl.readPktSize::6                 118540                       # Read request sizes (log2) (Count)
system.mem_ctrl.writePktSize::0                     0                       # Write request sizes (log2) (Count)
system.mem_ctrl.writePktSize::1                     0                       # Write request sizes (log2) (Count)
system.mem_ctrl.writePktSize::2                     0                       # Write request sizes (log2) (Count)
system.mem_ctrl.writePktSize::3                     0                       # Write request sizes (log2) (Count)
system.mem_ctrl.writePktSize::4                     0                       # Write request sizes (log2) (Count)
system.mem_ctrl.writePktSize::5                     0                       # Write request sizes (log2) (Count)
system.mem_ctrl.writePktSize::6                120802                       # Write request sizes (log2) (Count)
system.mem_ctrl.rdQLenPdf::0                        3                       # What read queue length does an incoming req see (Count)
system.mem_ctrl.rdQLenPdf::1                      141                       # What read queue length does an incoming req see (Count)
system.mem_ctrl.rdQLenPdf::2                      346                       # What read queue length does an incoming req see (Count)
system.mem_ctrl.rdQLenPdf::3                      539                       # What read queue length does an incoming req see (Count)
system.mem_ctrl.rdQLenPdf::4                      704                       # What read queue length does an incoming req see (Count)
system.mem_ctrl.rdQLenPdf::5                      855                       # What read queue length does an incoming req see (Count)
system.mem_ctrl.rdQLenPdf::6                     1065                       # What read queue length does an incoming req see (Count)
system.mem_ctrl.rdQLenPdf::7                     1207                       # What read queue length does an incoming req see (Count)
system.mem_ctrl.rdQLenPdf::8                     1385                       # What read queue length does an incoming req see (Count)
system.mem_ctrl.rdQLenPdf::9                     1475                       # What read queue length does an incoming req see (Count)
system.mem_ctrl.rdQLenPdf::10                    1612                       # What read queue length does an incoming req see (Count)
system.mem_ctrl.rdQLenPdf::11                    1777                       # What read queue length does an incoming req see (Count)
system.mem_ctrl.rdQLenPdf::12                    1836                       # What read queue length does an incoming req see (Count)
system.mem_ctrl.rdQLenPdf::13                    1858                       # What read queue length does an incoming req see (Count)
system.mem_ctrl.rdQLenPdf::14                    2013                       # What read queue length does an incoming req see (Count)
system.mem_ctrl.rdQLenPdf::15                    2120                       # What read queue length does an incoming req see (Count)
system.mem_ctrl.rdQLenPdf::16                    2156                       # What read queue length does an incoming req see (Count)
system.mem_ctrl.rdQLenPdf::17                    2348                       # What read queue length does an incoming req see (Count)
system.mem_ctrl.rdQLenPdf::18                    2270                       # What read queue length does an incoming req see (Count)
system.mem_ctrl.rdQLenPdf::19                    2310                       # What read queue length does an incoming req see (Count)
system.mem_ctrl.rdQLenPdf::20                    2258                       # What read queue length does an incoming req see (Count)
system.mem_ctrl.rdQLenPdf::21                    2257                       # What read queue length does an incoming req see (Count)
system.mem_ctrl.rdQLenPdf::22                    2178                       # What read queue length does an incoming req see (Count)
system.mem_ctrl.rdQLenPdf::23                    2214                       # What read queue length does an incoming req see (Count)
system.mem_ctrl.rdQLenPdf::24                    2290                       # What read queue length does an incoming req see (Count)
system.mem_ctrl.rdQLenPdf::25                    2301                       # What read queue length does an incoming req see (Count)
system.mem_ctrl.rdQLenPdf::26                    2292                       # What read queue length does an incoming req see (Count)
system.mem_ctrl.rdQLenPdf::27                    2290                       # What read queue length does an incoming req see (Count)
system.mem_ctrl.rdQLenPdf::28                    2242                       # What read queue length does an incoming req see (Count)
system.mem_ctrl.rdQLenPdf::29                    2141                       # What read queue length does an incoming req see (Count)
system.mem_ctrl.rdQLenPdf::30                    2204                       # What read queue length does an incoming req see (Count)
system.mem_ctrl.rdQLenPdf::31                    2171                       # What read queue length does an incoming req see (Count)
system.mem_ctrl.rdQLenPdf::32                    2018                       # What read queue length does an incoming req see (Count)
system.mem_ctrl.rdQLenPdf::33                    2063                       # What read queue length does an incoming req see (Count)
system.mem_ctrl.rdQLenPdf::34                    1950                       # What read queue length does an incoming req see (Count)
system.mem_ctrl.rdQLenPdf::35                    1906                       # What read queue length does an incoming req see (Count)
system.mem_ctrl.rdQLenPdf::36                    1744                       # What read queue length does an incoming req see (Count)
system.mem_ctrl.rdQLenPdf::37                    1809                       # What read queue length does an incoming req see (Count)
system.mem_ctrl.rdQLenPdf::38                    1832                       # What read queue length does an incoming req see (Count)
system.mem_ctrl.rdQLenPdf::39                    1803                       # What read queue length does an incoming req see (Count)
system.mem_ctrl.rdQLenPdf::40                    1819                       # What read queue length does an incoming req see (Count)
system.mem_ctrl.rdQLenPdf::41                    1725                       # What read queue length does an incoming req see (Count)
system.mem_ctrl.rdQLenPdf::42                    1778                       # What read queue length does an incoming req see (Count)
system.mem_ctrl.rdQLenPdf::43                    1694                       # What read queue length does an incoming req see (Count)
system.mem_ctrl.rdQLenPdf::44                    1635                       # What read queue length does an incoming req see (Count)
system.mem_ctrl.rdQLenPdf::45                    1433                       # What read queue length does an incoming req see (Count)
system.mem_ctrl.rdQLenPdf::46                    1519                       # What read queue length does an incoming req see (Count)
system.mem_ctrl.rdQLenPdf::47                    1502                       # What read queue length does an incoming req see (Count)
system.mem_ctrl.rdQLenPdf::48                    1470                       # What read queue length does an incoming req see (Count)
system.mem_ctrl.rdQLenPdf::49                    1412                       # What read queue length does an incoming req see (Count)
system.mem_ctrl.rdQLenPdf::50                    1385                       # What read queue length does an incoming req see (Count)
system.mem_ctrl.rdQLenPdf::51                    1378                       # What read queue length does an incoming req see (Count)
system.mem_ctrl.rdQLenPdf::52                    1334                       # What read queue length does an incoming req see (Count)
system.mem_ctrl.rdQLenPdf::53                    1236                       # What read queue length does an incoming req see (Count)
system.mem_ctrl.rdQLenPdf::54                    1191                       # What read queue length does an incoming req see (Count)
system.mem_ctrl.rdQLenPdf::55                    1221                       # What read queue length does an incoming req see (Count)
system.mem_ctrl.rdQLenPdf::56                    1213                       # What read queue length does an incoming req see (Count)
system.mem_ctrl.rdQLenPdf::57                    1190                       # What read queue length does an incoming req see (Count)
system.mem_ctrl.rdQLenPdf::58                    1083                       # What read queue length does an incoming req see (Count)
system.mem_ctrl.rdQLenPdf::59                    1035                       # What read queue length does an incoming req see (Count)
system.mem_ctrl.rdQLenPdf::60                    1028                       # What read queue length does an incoming req see (Count)
system.mem_ctrl.rdQLenPdf::61                     996                       # What read queue length does an incoming req see (Count)
system.mem_ctrl.rdQLenPdf::62                    1132                       # What read queue length does an incoming req see (Count)
system.mem_ctrl.rdQLenPdf::63                   17148                       # What read queue length does an incoming req see (Count)
system.mem_ctrl.wrQLenPdf::0                        1                       # What write queue length does an incoming req see (Count)
system.mem_ctrl.wrQLenPdf::1                        1                       # What write queue length does an incoming req see (Count)
system.mem_ctrl.wrQLenPdf::2                        1                       # What write queue length does an incoming req see (Count)
system.mem_ctrl.wrQLenPdf::3                        1                       # What write queue length does an incoming req see (Count)
system.mem_ctrl.wrQLenPdf::4                        1                       # What write queue length does an incoming req see (Count)
system.mem_ctrl.wrQLenPdf::5                        1                       # What write queue length does an incoming req see (Count)
system.mem_ctrl.wrQLenPdf::6                        1                       # What write queue length does an incoming req see (Count)
system.mem_ctrl.wrQLenPdf::7                        1                       # What write queue length does an incoming req see (Count)
system.mem_ctrl.wrQLenPdf::8                        1                       # What write queue length does an incoming req see (Count)
system.mem_ctrl.wrQLenPdf::9                        1                       # What write queue length does an incoming req see (Count)
system.mem_ctrl.wrQLenPdf::10                       1                       # What write queue length does an incoming req see (Count)
system.mem_ctrl.wrQLenPdf::11                       1                       # What write queue length does an incoming req see (Count)
system.mem_ctrl.wrQLenPdf::12                       1                       # What write queue length does an incoming req see (Count)
system.mem_ctrl.wrQLenPdf::13                       1                       # What write queue length does an incoming req see (Count)
system.mem_ctrl.wrQLenPdf::14                       1                       # What write queue length does an incoming req see (Count)
system.mem_ctrl.wrQLenPdf::15                       1                       # What write queue length does an incoming req see (Count)
system.mem_ctrl.wrQLenPdf::16                       1                       # What write queue length does an incoming req see (Count)
system.mem_ctrl.wrQLenPdf::17                       1                       # What write queue length does an incoming req see (Count)
system.mem_ctrl.wrQLenPdf::18                       1                       # What write queue length does an incoming req see (Count)
system.mem_ctrl.wrQLenPdf::19                       1                       # What write queue length does an incoming req see (Count)
system.mem_ctrl.wrQLenPdf::20                       1                       # What write queue length does an incoming req see (Count)
system.mem_ctrl.wrQLenPdf::21                       1                       # What write queue length does an incoming req see (Count)
system.mem_ctrl.wrQLenPdf::22                       1                       # What write queue length does an incoming req see (Count)
system.mem_ctrl.wrQLenPdf::23                       1                       # What write queue length does an incoming req see (Count)
system.mem_ctrl.wrQLenPdf::24                       1                       # What write queue length does an incoming req see (Count)
system.mem_ctrl.wrQLenPdf::25                       1                       # What write queue length does an incoming req see (Count)
system.mem_ctrl.wrQLenPdf::26                       1                       # What write queue length does an incoming req see (Count)
system.mem_ctrl.wrQLenPdf::27                       1                       # What write queue length does an incoming req see (Count)
system.mem_ctrl.wrQLenPdf::28                       1                       # What write queue length does an incoming req see (Count)
system.mem_ctrl.wrQLenPdf::29                       1                       # What write queue length does an incoming req see (Count)
system.mem_ctrl.wrQLenPdf::30                       1                       # What write queue length does an incoming req see (Count)
system.mem_ctrl.wrQLenPdf::31                       1                       # What write queue length does an incoming req see (Count)
system.mem_ctrl.wrQLenPdf::32                       1                       # What write queue length does an incoming req see (Count)
system.mem_ctrl.wrQLenPdf::33                       1                       # What write queue length does an incoming req see (Count)
system.mem_ctrl.wrQLenPdf::34                       1                       # What write queue length does an incoming req see (Count)
system.mem_ctrl.wrQLenPdf::35                       1                       # What write queue length does an incoming req see (Count)
system.mem_ctrl.wrQLenPdf::36                       1                       # What write queue length does an incoming req see (Count)
system.mem_ctrl.wrQLenPdf::37                       1                       # What write queue length does an incoming req see (Count)
system.mem_ctrl.wrQLenPdf::38                       1                       # What write queue length does an incoming req see (Count)
system.mem_ctrl.wrQLenPdf::39                       1                       # What write queue length does an incoming req see (Count)
system.mem_ctrl.wrQLenPdf::40                       1                       # What write queue length does an incoming req see (Count)
system.mem_ctrl.wrQLenPdf::41                       1                       # What write queue length does an incoming req see (Count)
system.mem_ctrl.wrQLenPdf::42                       1                       # What write queue length does an incoming req see (Count)
system.mem_ctrl.wrQLenPdf::43                       1                       # What write queue length does an incoming req see (Count)
system.mem_ctrl.wrQLenPdf::44                       1                       # What write queue length does an incoming req see (Count)
system.mem_ctrl.wrQLenPdf::45                       1                       # What write queue length does an incoming req see (Count)
system.mem_ctrl.wrQLenPdf::46                       1                       # What write queue length does an incoming req see (Count)
system.mem_ctrl.wrQLenPdf::47                       1                       # What write queue length does an incoming req see (Count)
system.mem_ctrl.wrQLenPdf::48                       1                       # What write queue length does an incoming req see (Count)
system.mem_ctrl.wrQLenPdf::49                       1                       # What write queue length does an incoming req see (Count)
system.mem_ctrl.wrQLenPdf::50                       1                       # What write queue length does an incoming req see (Count)
system.mem_ctrl.wrQLenPdf::51                       1                       # What write queue length does an incoming req see (Count)
system.mem_ctrl.wrQLenPdf::52                       1                       # What write queue length does an incoming req see (Count)
system.mem_ctrl.wrQLenPdf::53                       1                       # What write queue length does an incoming req see (Count)
system.mem_ctrl.wrQLenPdf::54                       1                       # What write queue length does an incoming req see (Count)
system.mem_ctrl.wrQLenPdf::55                       1                       # What write queue length does an incoming req see (Count)
system.mem_ctrl.wrQLenPdf::56                       1                       # What write queue length does an incoming req see (Count)
system.mem_ctrl.wrQLenPdf::57                       1                       # What write queue length does an incoming req see (Count)
system.mem_ctrl.wrQLenPdf::58                       1                       # What write queue length does an incoming req see (Count)
system.mem_ctrl.wrQLenPdf::59                       1                       # What write queue length does an incoming req see (Count)
system.mem_ctrl.wrQLenPdf::60                       1                       # What write queue length does an incoming req see (Count)
system.mem_ctrl.wrQLenPdf::61                       1                       # What write queue length does an incoming req see (Count)
system.mem_ctrl.wrQLenPdf::62                       1                       # What write queue length does an incoming req see (Count)
system.mem_ctrl.wrQLenPdf::63                       1                       # What write queue length does an incoming req see (Count)
system.mem_ctrl.wrQLenPdf::64                       1                       # What write queue length does an incoming req see (Count)
system.mem_ctrl.wrQLenPdf::65                       1                       # What write queue length does an incoming req see (Count)
system.mem_ctrl.wrQLenPdf::66                       1                       # What write queue length does an incoming req see (Count)
system.mem_ctrl.wrQLenPdf::67                       1                       # What write queue length does an incoming req see (Count)
system.mem_ctrl.wrQLenPdf::68                       1                       # What write queue length does an incoming req see (Count)
system.mem_ctrl.wrQLenPdf::69                       1                       # What write queue length does an incoming req see (Count)
system.mem_ctrl.wrQLenPdf::70                       1                       # What write queue length does an incoming req see (Count)
system.mem_ctrl.wrQLenPdf::71                       1                       # What write queue length does an incoming req see (Count)
system.mem_ctrl.wrQLenPdf::72                       1                       # What write queue length does an incoming req see (Count)
system.mem_ctrl.wrQLenPdf::73                       1                       # What write queue length does an incoming req see (Count)
system.mem_ctrl.wrQLenPdf::74                       1                       # What write queue length does an incoming req see (Count)
system.mem_ctrl.wrQLenPdf::75                       1                       # What write queue length does an incoming req see (Count)
system.mem_ctrl.wrQLenPdf::76                       1                       # What write queue length does an incoming req see (Count)
system.mem_ctrl.wrQLenPdf::77                       1                       # What write queue length does an incoming req see (Count)
system.mem_ctrl.wrQLenPdf::78                       1                       # What write queue length does an incoming req see (Count)
system.mem_ctrl.wrQLenPdf::79                       1                       # What write queue length does an incoming req see (Count)
system.mem_ctrl.wrQLenPdf::80                       1                       # What write queue length does an incoming req see (Count)
system.mem_ctrl.wrQLenPdf::81                       1                       # What write queue length does an incoming req see (Count)
system.mem_ctrl.wrQLenPdf::82                       1                       # What write queue length does an incoming req see (Count)
system.mem_ctrl.wrQLenPdf::83                       1                       # What write queue length does an incoming req see (Count)
system.mem_ctrl.wrQLenPdf::84                       1                       # What write queue length does an incoming req see (Count)
system.mem_ctrl.wrQLenPdf::85                       1                       # What write queue length does an incoming req see (Count)
system.mem_ctrl.wrQLenPdf::86                       1                       # What write queue length does an incoming req see (Count)
system.mem_ctrl.wrQLenPdf::87                       1                       # What write queue length does an incoming req see (Count)
system.mem_ctrl.wrQLenPdf::88                       1                       # What write queue length does an incoming req see (Count)
system.mem_ctrl.wrQLenPdf::89                       1                       # What write queue length does an incoming req see (Count)
system.mem_ctrl.wrQLenPdf::90                       1                       # What write queue length does an incoming req see (Count)
system.mem_ctrl.wrQLenPdf::91                       1                       # What write queue length does an incoming req see (Count)
system.mem_ctrl.wrQLenPdf::92                       1                       # What write queue length does an incoming req see (Count)
system.mem_ctrl.wrQLenPdf::93                       1                       # What write queue length does an incoming req see (Count)
system.mem_ctrl.wrQLenPdf::94                       1                       # What write queue length does an incoming req see (Count)
system.mem_ctrl.wrQLenPdf::95                       1                       # What write queue length does an incoming req see (Count)
system.mem_ctrl.wrQLenPdf::96                       1                       # What write queue length does an incoming req see (Count)
system.mem_ctrl.wrQLenPdf::97                       4                       # What write queue length does an incoming req see (Count)
system.mem_ctrl.wrQLenPdf::98                       7                       # What write queue length does an incoming req see (Count)
system.mem_ctrl.wrQLenPdf::99                      15                       # What write queue length does an incoming req see (Count)
system.mem_ctrl.wrQLenPdf::100                     21                       # What write queue length does an incoming req see (Count)
system.mem_ctrl.wrQLenPdf::101                     39                       # What write queue length does an incoming req see (Count)
system.mem_ctrl.wrQLenPdf::102                     66                       # What write queue length does an incoming req see (Count)
system.mem_ctrl.wrQLenPdf::103                     91                       # What write queue length does an incoming req see (Count)
system.mem_ctrl.wrQLenPdf::104                    124                       # What write queue length does an incoming req see (Count)
system.mem_ctrl.wrQLenPdf::105                    180                       # What write queue length does an incoming req see (Count)
system.mem_ctrl.wrQLenPdf::106                    246                       # What write queue length does an incoming req see (Count)
system.mem_ctrl.wrQLenPdf::107                    366                       # What write queue length does an incoming req see (Count)
system.mem_ctrl.wrQLenPdf::108                    464                       # What write queue length does an incoming req see (Count)
system.mem_ctrl.wrQLenPdf::109                    578                       # What write queue length does an incoming req see (Count)
system.mem_ctrl.wrQLenPdf::110                    556                       # What write queue length does an incoming req see (Count)
system.mem_ctrl.wrQLenPdf::111                    607                       # What write queue length does an incoming req see (Count)
system.mem_ctrl.wrQLenPdf::112                    632                       # What write queue length does an incoming req see (Count)
system.mem_ctrl.wrQLenPdf::113                    651                       # What write queue length does an incoming req see (Count)
system.mem_ctrl.wrQLenPdf::114                    697                       # What write queue length does an incoming req see (Count)
system.mem_ctrl.wrQLenPdf::115                    665                       # What write queue length does an incoming req see (Count)
system.mem_ctrl.wrQLenPdf::116                    681                       # What write queue length does an incoming req see (Count)
system.mem_ctrl.wrQLenPdf::117                    702                       # What write queue length does an incoming req see (Count)
system.mem_ctrl.wrQLenPdf::118                    749                       # What write queue length does an incoming req see (Count)
system.mem_ctrl.wrQLenPdf::119                    784                       # What write queue length does an incoming req see (Count)
system.mem_ctrl.wrQLenPdf::120                    738                       # What write queue length does an incoming req see (Count)
system.mem_ctrl.wrQLenPdf::121                    827                       # What write queue length does an incoming req see (Count)
system.mem_ctrl.wrQLenPdf::122                    824                       # What write queue length does an incoming req see (Count)
system.mem_ctrl.wrQLenPdf::123                    855                       # What write queue length does an incoming req see (Count)
system.mem_ctrl.wrQLenPdf::124                    909                       # What write queue length does an incoming req see (Count)
system.mem_ctrl.wrQLenPdf::125                   1083                       # What write queue length does an incoming req see (Count)
system.mem_ctrl.wrQLenPdf::126                   2208                       # What write queue length does an incoming req see (Count)
system.mem_ctrl.wrQLenPdf::127                 104335                       # What write queue length does an incoming req see (Count)
system.mem_ctrl.rdPerTurnAround::samples         7543                       # Reads before turning the bus around for writes (Count)
system.mem_ctrl.rdPerTurnAround::mean       15.712581                       # Reads before turning the bus around for writes (Count)
system.mem_ctrl.rdPerTurnAround::gmean      15.591388                       # Reads before turning the bus around for writes (Count)
system.mem_ctrl.rdPerTurnAround::stdev       1.739036                       # Reads before turning the bus around for writes (Count)
system.mem_ctrl.rdPerTurnAround::3                  2      0.03%      0.03% # Reads before turning the bus around for writes (Count)
system.mem_ctrl.rdPerTurnAround::4                  9      0.12%      0.15% # Reads before turning the bus around for writes (Count)
system.mem_ctrl.rdPerTurnAround::5                  7      0.09%      0.24% # Reads before turning the bus around for writes (Count)
system.mem_ctrl.rdPerTurnAround::6                 15      0.20%      0.44% # Reads before turning the bus around for writes (Count)
system.mem_ctrl.rdPerTurnAround::7                 19      0.25%      0.69% # Reads before turning the bus around for writes (Count)
system.mem_ctrl.rdPerTurnAround::8                 33      0.44%      1.13% # Reads before turning the bus around for writes (Count)
system.mem_ctrl.rdPerTurnAround::9                 51      0.68%      1.80% # Reads before turning the bus around for writes (Count)
system.mem_ctrl.rdPerTurnAround::10                60      0.80%      2.60% # Reads before turning the bus around for writes (Count)
system.mem_ctrl.rdPerTurnAround::11                70      0.93%      3.53% # Reads before turning the bus around for writes (Count)
system.mem_ctrl.rdPerTurnAround::12                91      1.21%      4.73% # Reads before turning the bus around for writes (Count)
system.mem_ctrl.rdPerTurnAround::13                99      1.31%      6.05% # Reads before turning the bus around for writes (Count)
system.mem_ctrl.rdPerTurnAround::14               113      1.50%      7.54% # Reads before turning the bus around for writes (Count)
system.mem_ctrl.rdPerTurnAround::15               139      1.84%      9.39% # Reads before turning the bus around for writes (Count)
system.mem_ctrl.rdPerTurnAround::16              6690     88.69%     98.08% # Reads before turning the bus around for writes (Count)
system.mem_ctrl.rdPerTurnAround::17                26      0.34%     98.42% # Reads before turning the bus around for writes (Count)
system.mem_ctrl.rdPerTurnAround::18                23      0.30%     98.73% # Reads before turning the bus around for writes (Count)
system.mem_ctrl.rdPerTurnAround::19                18      0.24%     98.97% # Reads before turning the bus around for writes (Count)
system.mem_ctrl.rdPerTurnAround::20                14      0.19%     99.15% # Reads before turning the bus around for writes (Count)
system.mem_ctrl.rdPerTurnAround::21                15      0.20%     99.35% # Reads before turning the bus around for writes (Count)
system.mem_ctrl.rdPerTurnAround::22                12      0.16%     99.51% # Reads before turning the bus around for writes (Count)
system.mem_ctrl.rdPerTurnAround::23                 9      0.12%     99.63% # Reads before turning the bus around for writes (Count)
system.mem_ctrl.rdPerTurnAround::24                 8      0.11%     99.73% # Reads before turning the bus around for writes (Count)
system.mem_ctrl.rdPerTurnAround::25                 4      0.05%     99.79% # Reads before turning the bus around for writes (Count)
system.mem_ctrl.rdPerTurnAround::27                 3      0.04%     99.83% # Reads before turning the bus around for writes (Count)
system.mem_ctrl.rdPerTurnAround::28                 5      0.07%     99.89% # Reads before turning the bus around for writes (Count)
system.mem_ctrl.rdPerTurnAround::29                 4      0.05%     99.95% # Reads before turning the bus around for writes (Count)
system.mem_ctrl.rdPerTurnAround::31                 1      0.01%     99.96% # Reads before turning the bus around for writes (Count)
system.mem_ctrl.rdPerTurnAround::32                 2      0.03%     99.99% # Reads before turning the bus around for writes (Count)
system.mem_ctrl.rdPerTurnAround::53                 1      0.01%    100.00% # Reads before turning the bus around for writes (Count)
system.mem_ctrl.rdPerTurnAround::total           7543                       # Reads before turning the bus around for writes (Count)
system.mem_ctrl.wrPerTurnAround::samples         7542                       # Writes before turning the bus around for reads (Count)
system.mem_ctrl.wrPerTurnAround::mean              16                       # Writes before turning the bus around for reads (Count)
system.mem_ctrl.wrPerTurnAround::gmean      16.000000                       # Writes before turning the bus around for reads (Count)
system.mem_ctrl.wrPerTurnAround::16              7542    100.00%    100.00% # Writes before turning the bus around for reads (Count)
system.mem_ctrl.wrPerTurnAround::total           7542                       # Writes before turning the bus around for reads (Count)
system.mem_ctrl.bytesReadWrQ                        0                       # Total number of bytes read from write queue (Byte)
system.mem_ctrl.bytesReadSys                  7586560                       # Total read bytes from the system interface side (Byte)
system.mem_ctrl.bytesWrittenSys               7731328                       # Total written bytes from the system interface side (Byte)
system.mem_ctrl.avgRdBWSys               7586403158.70109653                       # Average system read bandwidth in Byte/s ((Byte/Second))
system.mem_ctrl.avgWrBWSys               7731168165.82933903                       # Average system write bandwidth in Byte/s ((Byte/Second))
system.mem_ctrl.totGap                     1000019674                       # Total gap between requests (Tick)
system.mem_ctrl.avgGap                        4178.20                       # Average gap between requests ((Tick/Count))
system.mem_ctrl.requestorReadBytes::generator      7585280                       # Per-requestor bytes read from memory (Byte)
system.mem_ctrl.requestorWriteBytes::generator      7723072                       # Per-requestor bytes write to memory (Byte)
system.mem_ctrl.requestorReadRate::generator 7585123185.163269996643                       # Per-requestor bytes read from memory rate ((Byte/Second))
system.mem_ctrl.requestorWriteRate::generator 7722912336.510354995728                       # Per-requestor bytes write to memory rate ((Byte/Second))
system.mem_ctrl.requestorReadAccesses::generator       118540                       # Per-requestor read serviced memory accesses (Count)
system.mem_ctrl.requestorWriteAccesses::generator       120802                       # Per-requestor write serviced memory accesses (Count)
system.mem_ctrl.requestorReadTotalLat::generator  35643766506                       # Per-requestor read total memory access latency (Tick)
system.mem_ctrl.requestorWriteTotalLat::generator 131949682878                       # Per-requestor write total memory access latency (Tick)
system.mem_ctrl.requestorReadAvgLat::generator    300689.78                       # Per-requestor read average memory access latency ((Tick/Count))
system.mem_ctrl.requestorWriteAvgLat::generator   1092280.62                       # Per-requestor write average memory access latency ((Tick/Count))
system.mem_ctrl.dram.bytesRead::generator      7584448                       # Number of bytes read from this memory (Byte)
system.mem_ctrl.dram.bytesRead::total         7584448                       # Number of bytes read from this memory (Byte)
system.mem_ctrl.dram.bytesWritten::generator      7731328                       # Number of bytes written to this memory (Byte)
system.mem_ctrl.dram.bytesWritten::total      7731328                       # Number of bytes written to this memory (Byte)
system.mem_ctrl.dram.numReads::generator       118507                       # Number of read requests responded to by this memory (Count)
system.mem_ctrl.dram.numReads::total           118507                       # Number of read requests responded to by this memory (Count)
system.mem_ctrl.dram.numWrites::generator       120802                       # Number of write requests responded to by this memory (Count)
system.mem_ctrl.dram.numWrites::total          120802                       # Number of write requests responded to by this memory (Count)
system.mem_ctrl.dram.bwRead::generator     7584291202                       # Total read bandwidth from this memory ((Byte/Second))
system.mem_ctrl.dram.bwRead::total         7584291202                       # Total read bandwidth from this memory ((Byte/Second))
system.mem_ctrl.dram.bwWrite::generator    7731168166                       # Write bandwidth from this memory ((Byte/Second))
system.mem_ctrl.dram.bwWrite::total        7731168166                       # Write bandwidth from this memory ((Byte/Second))
system.mem_ctrl.dram.bwTotal::generator   15315459368                       # Total bandwidth to/from this memory ((Byte/Second))
system.mem_ctrl.dram.bwTotal::total       15315459368                       # Total bandwidth to/from this memory ((Byte/Second))
system.mem_ctrl.dram.readBursts                118520                       # Number of DRAM read bursts (Count)
system.mem_ctrl.dram.writeBursts               120673                       # Number of DRAM write bursts (Count)
system.mem_ctrl.dram.perBankRdBursts::0          3766                       # Per bank write bursts (Count)
system.mem_ctrl.dram.perBankRdBursts::1          3781                       # Per bank write bursts (Count)
system.mem_ctrl.dram.perBankRdBursts::2          3707                       # Per bank write bursts (Count)
system.mem_ctrl.dram.perBankRdBursts::3          3741                       # Per bank write bursts (Count)
system.mem_ctrl.dram.perBankRdBursts::4          3800                       # Per bank write bursts (Count)
system.mem_ctrl.dram.perBankRdBursts::5          3721                       # Per bank write bursts (Count)
system.mem_ctrl.dram.perBankRdBursts::6          3782                       # Per bank write bursts (Count)
system.mem_ctrl.dram.perBankRdBursts::7          3656                       # Per bank write bursts (Count)
system.mem_ctrl.dram.perBankRdBursts::8          3651                       # Per bank write bursts (Count)
system.mem_ctrl.dram.perBankRdBursts::9          3745                       # Per bank write bursts (Count)
system.mem_ctrl.dram.perBankRdBursts::10         3648                       # Per bank write bursts (Count)
system.mem_ctrl.dram.perBankRdBursts::11         3700                       # Per bank write bursts (Count)
system.mem_ctrl.dram.perBankRdBursts::12         3697                       # Per bank write bursts (Count)
system.mem_ctrl.dram.perBankRdBursts::13         3578                       # Per bank write bursts (Count)
system.mem_ctrl.dram.perBankRdBursts::14         3592                       # Per bank write bursts (Count)
system.mem_ctrl.dram.perBankRdBursts::15         3718                       # Per bank write bursts (Count)
system.mem_ctrl.dram.perBankRdBursts::16         3783                       # Per bank write bursts (Count)
system.mem_ctrl.dram.perBankRdBursts::17         3750                       # Per bank write bursts (Count)
system.mem_ctrl.dram.perBankRdBursts::18         3652                       # Per bank write bursts (Count)
system.mem_ctrl.dram.perBankRdBursts::19         3741                       # Per bank write bursts (Count)
system.mem_ctrl.dram.perBankRdBursts::20         3691                       # Per bank write bursts (Count)
system.mem_ctrl.dram.perBankRdBursts::21         3600                       # Per bank write bursts (Count)
system.mem_ctrl.dram.perBankRdBursts::22         3681                       # Per bank write bursts (Count)
system.mem_ctrl.dram.perBankRdBursts::23         3672                       # Per bank write bursts (Count)
system.mem_ctrl.dram.perBankRdBursts::24         3709                       # Per bank write bursts (Count)
system.mem_ctrl.dram.perBankRdBursts::25         3720                       # Per bank write bursts (Count)
system.mem_ctrl.dram.perBankRdBursts::26         3745                       # Per bank write bursts (Count)
system.mem_ctrl.dram.perBankRdBursts::27         3773                       # Per bank write bursts (Count)
system.mem_ctrl.dram.perBankRdBursts::28         3604                       # Per bank write bursts (Count)
system.mem_ctrl.dram.perBankRdBursts::29         3666                       # Per bank write bursts (Count)
system.mem_ctrl.dram.perBankRdBursts::30         3729                       # Per bank write bursts (Count)
system.mem_ctrl.dram.perBankRdBursts::31         3721                       # Per bank write bursts (Count)
system.mem_ctrl.dram.perBankWrBursts::0          3763                       # Per bank write bursts (Count)
system.mem_ctrl.dram.perBankWrBursts::1          3754                       # Per bank write bursts (Count)
system.mem_ctrl.dram.perBankWrBursts::2          3675                       # Per bank write bursts (Count)
system.mem_ctrl.dram.perBankWrBursts::3          3864                       # Per bank write bursts (Count)
system.mem_ctrl.dram.perBankWrBursts::4          3766                       # Per bank write bursts (Count)
system.mem_ctrl.dram.perBankWrBursts::5          3774                       # Per bank write bursts (Count)
system.mem_ctrl.dram.perBankWrBursts::6          3727                       # Per bank write bursts (Count)
system.mem_ctrl.dram.perBankWrBursts::7          3812                       # Per bank write bursts (Count)
system.mem_ctrl.dram.perBankWrBursts::8          3711                       # Per bank write bursts (Count)
system.mem_ctrl.dram.perBankWrBursts::9          3819                       # Per bank write bursts (Count)
system.mem_ctrl.dram.perBankWrBursts::10         3691                       # Per bank write bursts (Count)
system.mem_ctrl.dram.perBankWrBursts::11         3706                       # Per bank write bursts (Count)
system.mem_ctrl.dram.perBankWrBursts::12         3763                       # Per bank write bursts (Count)
system.mem_ctrl.dram.perBankWrBursts::13         3720                       # Per bank write bursts (Count)
system.mem_ctrl.dram.perBankWrBursts::14         3695                       # Per bank write bursts (Count)
system.mem_ctrl.dram.perBankWrBursts::15         3726                       # Per bank write bursts (Count)
system.mem_ctrl.dram.perBankWrBursts::16         3768                       # Per bank write bursts (Count)
system.mem_ctrl.dram.perBankWrBursts::17         3713                       # Per bank write bursts (Count)
system.mem_ctrl.dram.perBankWrBursts::18         3836                       # Per bank write bursts (Count)
system.mem_ctrl.dram.perBankWrBursts::19         3810                       # Per bank write bursts (Count)
system.mem_ctrl.dram.perBankWrBursts::20         3794                       # Per bank write bursts (Count)
system.mem_ctrl.dram.perBankWrBursts::21         3850                       # Per bank write bursts (Count)
system.mem_ctrl.dram.perBankWrBursts::22         3838                       # Per bank write bursts (Count)
system.mem_ctrl.dram.perBankWrBursts::23         3788                       # Per bank write bursts (Count)
system.mem_ctrl.dram.perBankWrBursts::24         3734                       # Per bank write bursts (Count)
system.mem_ctrl.dram.perBankWrBursts::25         3794                       # Per bank write bursts (Count)
system.mem_ctrl.dram.perBankWrBursts::26         3784                       # Per bank write bursts (Count)
system.mem_ctrl.dram.perBankWrBursts::27         3832                       # Per bank write bursts (Count)
system.mem_ctrl.dram.perBankWrBursts::28         3773                       # Per bank write bursts (Count)
system.mem_ctrl.dram.perBankWrBursts::29         3842                       # Per bank write bursts (Count)
system.mem_ctrl.dram.perBankWrBursts::30         3831                       # Per bank write bursts (Count)
system.mem_ctrl.dram.perBankWrBursts::31         3720                       # Per bank write bursts (Count)
system.mem_ctrl.dram.totQLat              33570614666                       # Total ticks spent queuing (Tick)
system.mem_ctrl.dram.totBusLat              394908640                       # Total ticks spent in databus transfers (Tick)
system.mem_ctrl.dram.totMemAccLat         35643766506                       # Total ticks spent from burst creation until serviced by the DRAM (Tick)
system.mem_ctrl.dram.avgQLat                283248.52                       # Average queueing delay per DRAM burst ((Tick/Count))
system.mem_ctrl.dram.avgBusLat                3332.00                       # Average bus latency per DRAM burst ((Tick/Count))
system.mem_ctrl.dram.avgMemAccLat           300740.52                       # Average memory access latency per DRAM burst ((Tick/Count))
system.mem_ctrl.dram.readRowHits                   31                       # Number of row buffer hits during reads (Count)
system.mem_ctrl.dram.writeRowHits                 161                       # Number of row buffer hits during writes (Count)
system.mem_ctrl.dram.readRowHitRate              0.03                       # Row buffer hit rate for reads (Ratio)
system.mem_ctrl.dram.writeRowHitRate             0.13                       # Row buffer hit rate for writes (Ratio)
system.mem_ctrl.dram.bytesPerActivate::samples       238989                       # Bytes accessed per row activation (Byte)
system.mem_ctrl.dram.bytesPerActivate::mean    64.051417                       # Bytes accessed per row activation (Byte)
system.mem_ctrl.dram.bytesPerActivate::gmean    64.035649                       # Bytes accessed per row activation (Byte)
system.mem_ctrl.dram.bytesPerActivate::stdev     1.813293                       # Bytes accessed per row activation (Byte)
system.mem_ctrl.dram.bytesPerActivate::64-79       238797     99.92%     99.92% # Bytes accessed per row activation (Byte)
system.mem_ctrl.dram.bytesPerActivate::128-143          192      0.08%    100.00% # Bytes accessed per row activation (Byte)
system.mem_ctrl.dram.bytesPerActivate::total       238989                       # Bytes accessed per row activation (Byte)
system.mem_ctrl.dram.bytesRead                7585280                       # Total bytes read (Byte)
system.mem_ctrl.dram.bytesWritten             7723072                       # Total bytes written (Byte)
system.mem_ctrl.dram.avgRdBW              7585.123185                       # Average DRAM read bandwidth in MiBytes/s ((Byte/Second))
system.mem_ctrl.dram.avgWrBW              7722.912337                       # Average DRAM write bandwidth in MiBytes/s ((Byte/Second))
system.mem_ctrl.dram.peakBW                  19207.00                       # Theoretical peak bandwidth in MiByte/s ((Byte/Second))
system.mem_ctrl.dram.busUtil                    79.70                       # Data bus utilization in percentage (Ratio)
system.mem_ctrl.dram.busUtilRead                39.49                       # Data bus utilization in percentage for reads (Ratio)
system.mem_ctrl.dram.busUtilWrite               40.21                       # Data bus utilization in percentage for writes (Ratio)
system.mem_ctrl.dram.pageHitRate                 0.08                       # Row buffer hit rate, read and write combined (Ratio)
system.mem_ctrl.dram.power_state.pwrStateResidencyTicks::UNDEFINED   1000020674                       # Cumulative time (in ticks) in various power states (Tick)
system.mem_ctrl.dram.rank0.actEnergy     371608657.056000                       # Energy for activate commands per rank (pJ) (Joule)
system.mem_ctrl.dram.rank0.preEnergy     494019920.956800                       # Energy for precharge commands per rank (pJ) (Joule)
system.mem_ctrl.dram.rank0.readEnergy    249363078.854400                       # Energy for read commands per rank (pJ) (Joule)
system.mem_ctrl.dram.rank0.writeEnergy   225378212.640000                       # Energy for write commands per rank (pJ) (Joule)
system.mem_ctrl.dram.rank0.refreshEnergy 177328336.281601                       # Energy for refresh commands per rank (pJ) (Joule)
system.mem_ctrl.dram.rank0.actBackEnergy 843438481.603200                       # Energy for active background per rank (pJ) (Joule)
system.mem_ctrl.dram.rank0.preBackEnergy 4748307.916800                       # Energy for precharge background per rank (pJ) (Joule)
system.mem_ctrl.dram.rank0.actPowerDownEnergy            0                       # Energy for active power-down per rank (pJ) (Joule)
system.mem_ctrl.dram.rank0.prePowerDownEnergy            0                       # Energy for precharge power-down per rank (pJ) (Joule)
system.mem_ctrl.dram.rank0.selfRefreshEnergy            0                       # Energy for self refresh per rank (pJ) (Joule)
system.mem_ctrl.dram.rank0.totalEnergy   2365884995.308801                       # Total energy per rank (pJ) (Joule)
system.mem_ctrl.dram.rank0.averagePower   2365.836084                       # Core power per rank (mW) (Watt)
system.mem_ctrl.dram.rank0.totalIdleTime            0                       # Total Idle time Per DRAM Rank (Tick)
system.mem_ctrl.dram.rank0.pwrStateTime::IDLE      2279628                       # Time in different power states (Tick)
system.mem_ctrl.dram.rank0.pwrStateTime::REF     44800000                       # Time in different power states (Tick)
system.mem_ctrl.dram.rank0.pwrStateTime::SREF            0                       # Time in different power states (Tick)
system.mem_ctrl.dram.rank0.pwrStateTime::PRE_PDN            0                       # Time in different power states (Tick)
system.mem_ctrl.dram.rank0.pwrStateTime::ACT    952941046                       # Time in different power states (Tick)
system.mem_ctrl.dram.rank0.pwrStateTime::ACT_PDN            0                       # Time in different power states (Tick)
system.mem_ctrl.dram.rank1.actEnergy     373763714.688000                       # Energy for activate commands per rank (pJ) (Joule)
system.mem_ctrl.dram.rank1.preEnergy     496889188.790400                       # Energy for precharge commands per rank (pJ) (Joule)
system.mem_ctrl.dram.rank1.readEnergy    249135937.747200                       # Energy for read commands per rank (pJ) (Joule)
system.mem_ctrl.dram.rank1.writeEnergy   228167016.672000                       # Energy for write commands per rank (pJ) (Joule)
system.mem_ctrl.dram.rank1.refreshEnergy 177328336.281601                       # Energy for refresh commands per rank (pJ) (Joule)
system.mem_ctrl.dram.rank1.actBackEnergy 843454051.372800                       # Energy for active background per rank (pJ) (Joule)
system.mem_ctrl.dram.rank1.preBackEnergy 4736344.704000                       # Energy for precharge background per rank (pJ) (Joule)
system.mem_ctrl.dram.rank1.actPowerDownEnergy            0                       # Energy for active power-down per rank (pJ) (Joule)
system.mem_ctrl.dram.rank1.prePowerDownEnergy            0                       # Energy for precharge power-down per rank (pJ) (Joule)
system.mem_ctrl.dram.rank1.selfRefreshEnergy            0                       # Energy for self refresh per rank (pJ) (Joule)
system.mem_ctrl.dram.rank1.totalEnergy   2373474590.255999                       # Total energy per rank (pJ) (Joule)
system.mem_ctrl.dram.rank1.averagePower   2373.425522                       # Core power per rank (mW) (Watt)
system.mem_ctrl.dram.rank1.totalIdleTime            0                       # Total Idle time Per DRAM Rank (Tick)
system.mem_ctrl.dram.rank1.pwrStateTime::IDLE      2275004                       # Time in different power states (Tick)
system.mem_ctrl.dram.rank1.pwrStateTime::REF     44800000                       # Time in different power states (Tick)
system.mem_ctrl.dram.rank1.pwrStateTime::SREF            0                       # Time in different power states (Tick)
system.mem_ctrl.dram.rank1.pwrStateTime::PRE_PDN            0                       # Time in different power states (Tick)
system.mem_ctrl.dram.rank1.pwrStateTime::ACT    952945670                       # Time in different power states (Tick)
system.mem_ctrl.dram.rank1.pwrStateTime::ACT_PDN            0                       # Time in different power states (Tick)
system.mem_ctrl.power_state.pwrStateResidencyTicks::UNDEFINED   1000020674                       # Cumulative time (in ticks) in various power states (Tick)
system.workload.inst.arm                            0                       # number of arm instructions executed (Count)
system.workload.inst.quiesce                        0                       # number of quiesce instructions executed (Count)

---------- End Simulation Statistics   ----------
