
---------- Begin Simulation Statistics ----------
simSeconds                                   0.001000                       # Number of seconds simulated (Second)
simTicks                                   1000076328                       # Number of ticks simulated (Tick)
finalTick                                  1000076328                       # Number of ticks from beginning of simulation (restored from checkpoints and never reset) (Tick)
simFreq                                  1000000000000                       # The number of ticks per simulated second ((Tick/Second))
hostSeconds                                      0.35                       # Real time elapsed on the host (Second)
hostTickRate                               2848607362                       # The number of ticks simulated per host second (ticks/s) ((Tick/Second))
hostMemory                                    8488256                       # Number of bytes of host memory used (Byte)
system.clk_domain.clock                           250                       # Clock period in ticks (Tick)
system.clk_domain.voltage_domain.voltage            1                       # Voltage in Volts (Volt)
system.generator.numSuppressed                      0                       # Number of suppressed packets to non-memory space (Count)
system.generator.numPackets                     37013                       # Number of packets generated (Count)
system.generator.numRetries                     17250                       # Number of retries (Count)
system.generator.retryTicks                 979723544                       # Time spent waiting due to back-pressure (Tick)
system.generator.bytesRead                    1170176                       # Number of bytes read (Byte)
system.generator.bytesWritten                 1194496                       # Number of bytes written (Byte)
system.generator.totalReadLatency         31140001059                       # Total latency of read requests (Tick)
system.generator.totalWriteLatency         1041663583                       # Total latency of write requests (Tick)
system.generator.totalReads                     18284                       # Total num of reads (Count)
system.generator.totalWrites                    18664                       # Total num of writes (Count)
system.generator.avgReadLatency          1703128.476209                       # Avg latency of read requests ((Tick/Count))
system.generator.avgWriteLatency         55811.379286                       # Avg latency of write requests ((Tick/Count))
system.generator.readBW                  1170086689.623155                       # Read bandwidth ((Byte/Second))
system.generator.writeBW                 1194404833.467871                       # Write bandwidth ((Byte/Second))
system.generator.power_state.pwrStateResidencyTicks::UNDEFINED   1000076328                       # Cumulative time (in ticks) in various power states (Tick)
system.mem_ctrl.avgPriority_generator::samples     37013.00                       # Average QoS priority value for accepted requests (Count)
system.mem_ctrl.priorityMinLatency       0.000000317492                       # per QoS priority minimum request to response latency (Second)
system.mem_ctrl.priorityMaxLatency       0.000031757786                       # per QoS priority maximum request to response latency (Second)
system.mem_ctrl.numReadWriteTurnArounds          1160                       # Number of turnarounds from READ to WRITE (Count)
system.mem_ctrl.numWriteReadTurnArounds          1160                       # Number of turnarounds from WRITE to READ (Count)
system.mem_ctrl.numStayReadState                56021                       # Number of times bus staying in READ state (Count)
system.mem_ctrl.numStayWriteState               17400                       # Number of times bus staying in WRITE state (Count)
system.mem_ctrl.readReqs                        18349                       # Number of read requests accepted (Count)
system.mem_ctrl.writeReqs                       18664                       # Number of write requests accepted (Count)
system.mem_ctrl.readBursts                      18349                       # Number of controller read bursts, including those serviced by the write queue (Count)
system.mem_ctrl.writeBursts                     18664                       # Number of controller write bursts, including those merged in the write queue (Count)
system.mem_ctrl.servicedByWrQ                       0                       # Number of controller read bursts serviced by the write queue (Count)
system.mem_ctrl.mergedWrBursts                      0                       # Number of controller write bursts merged with an existing one (Count)
system.mem_ctrl.neitherReadNorWriteReqs             0                       # Number of requests that are neither read nor write (Count)
system.mem_ctrl.avgRdQLen                       37.49                       # Average read queue length when enqueuing ((Count/Tick))
system.mem_ctrl.avgWrQLen                      126.46                       # Average write queue length when enqueuing ((Count/Tick))
system.mem_ctrl.numRdRetry                       3181                       # Number of times read queue was full causing retry (Count)
system.mem_ctrl.numWrRetry                      14069                       # Number of times write queue was full causing retry (Count)
system.mem_ctrl.readPktSize::0                      0                       # Read request sizes (log2) (Count)
system.mem_ctrl.readPktSize::1                      0                       # Read request sizes (log2) (Count)
system.mem_ctrl.readPktSize::2                      0                       # Read request sizes (log2) (Count)
system.mem_ctrl.readPktSize::3                      0                       # Read request sizes (log2) (Count)
system.mem_ctrl.readPktSize::4                      0                       # Read request sizes (log2) (Count)
system.mem_ctrl.readPktSize::5                      0                       # Read request sizes (log2) (Count)
system.mem_ctrl.readPktSize::6                  18349                       # Read request sizes (log2) (Count)
system.mem_ctrl.writePktSize::0                     0                       # Write request sizes (log2) (Count)
system.mem_ctrl.writePktSize::1                     0                       # Write request sizes (log2) (Count)
system.mem_ctrl.writePktSize::2                     0                       # Write request sizes (log2) (Count)
system.mem_ctrl.writePktSize::3                     0                       # Write request sizes (log2) (Count)
system.mem_ctrl.writePktSize::4                     0                       # Write request sizes (log2) (Count)
system.mem_ctrl.writePktSize::5                     0                       # Write request sizes (log2) (Count)
system.mem_ctrl.writePktSize::6                 18664                       # Write request sizes (log2) (Count)
system.mem_ctrl.rdQLenPdf::0                        4                       # What read queue length does an incoming req see (Count)
system.mem_ctrl.rdQLenPdf::1                      119                       # What read queue length does an incoming req see (Count)
system.mem_ctrl.rdQLenPdf::2                      146                       # What read queue length does an incoming req see (Count)
system.mem_ctrl.rdQLenPdf::3                      166                       # What read queue length does an incoming req see (Count)
system.mem_ctrl.rdQLenPdf::4                      191                       # What read queue length does an incoming req see (Count)
system.mem_ctrl.rdQLenPdf::5                      193                       # What read queue length does an incoming req see (Count)
system.mem_ctrl.rdQLenPdf::6                      220                       # What read queue length does an incoming req see (Count)
system.mem_ctrl.rdQLenPdf::7                      236                       # What read queue length does an incoming req see (Count)
system.mem_ctrl.rdQLenPdf::8                      248                       # What read queue length does an incoming req see (Count)
system.mem_ctrl.rdQLenPdf::9                      267                       # What read queue length does an incoming req see (Count)
system.mem_ctrl.rdQLenPdf::10                     260                       # What read queue length does an incoming req see (Count)
system.mem_ctrl.rdQLenPdf::11                     259                       # What read queue length does an incoming req see (Count)
system.mem_ctrl.rdQLenPdf::12                     260                       # What read queue length does an incoming req see (Count)
system.mem_ctrl.rdQLenPdf::13                     273                       # What read queue length does an incoming req see (Count)
system.mem_ctrl.rdQLenPdf::14                     265                       # What read queue length does an incoming req see (Count)
system.mem_ctrl.rdQLenPdf::15                     261                       # What read queue length does an incoming req see (Count)
system.mem_ctrl.rdQLenPdf::16                     281                       # What read queue length does an incoming req see (Count)
system.mem_ctrl.rdQLenPdf::17                     282                       # What read queue length does an incoming req see (Count)
system.mem_ctrl.rdQLenPdf::18                     277                       # What read queue length does an incoming req see (Count)
system.mem_ctrl.rdQLenPdf::19                     258                       # What read queue length does an incoming req see (Count)
system.mem_ctrl.rdQLenPdf::20                     263                       # What read queue length does an incoming req see (Count)
system.mem_ctrl.rdQLenPdf::21                     263                       # What read queue length does an incoming req see (Count)
system.mem_ctrl.rdQLenPdf::22                     256                       # What read queue length does an incoming req see (Count)
system.mem_ctrl.rdQLenPdf::23                     258                       # What read queue length does an incoming req see (Count)
system.mem_ctrl.rdQLenPdf::24                     259                       # What read queue length does an incoming req see (Count)
system.mem_ctrl.rdQLenPdf::25                     268                       # What read queue length does an incoming req see (Count)
system.mem_ctrl.rdQLenPdf::26                     278                       # What read queue length does an incoming req see (Count)
system.mem_ctrl.rdQLenPdf::27                     281                       # What read queue length does an incoming req see (Count)
system.mem_ctrl.rdQLenPdf::28                     277                       # What read queue length does an incoming req see (Count)
system.mem_ctrl.rdQLenPdf::29                     266                       # What read queue length does an incoming req see (Count)
system.mem_ctrl.rdQLenPdf::30                     267                       # What read queue length does an incoming req see (Count)
system.mem_ctrl.rdQLenPdf::31                     265                       # What read queue length does an incoming req see (Count)
system.mem_ctrl.rdQLenPdf::32                     266                       # What read queue length does an incoming req see (Count)
system.mem_ctrl.rdQLenPdf::33                     264                       # What read queue length does an incoming req see (Count)
system.mem_ctrl.rdQLenPdf::34                     269                       # What read queue length does an incoming req see (Count)
system.mem_ctrl.rdQLenPdf::35                     259                       # What read queue length does an incoming req see (Count)
system.mem_ctrl.rdQLenPdf::36                     260                       # What read queue length does an incoming req see (Count)
system.mem_ctrl.rdQLenPdf::37                     263                       # What read queue length does an incoming req see (Count)
system.mem_ctrl.rdQLenPdf::38                     267                       # What read queue length does an incoming req see (Count)
system.mem_ctrl.rdQLenPdf::39                     283                       # What read queue length does an incoming req see (Count)
system.mem_ctrl.rdQLenPdf::40                     286                       # What read queue length does an incoming req see (Count)
system.mem_ctrl.rdQLenPdf::41                     280                       # What read queue length does an incoming req see (Count)
system.mem_ctrl.rdQLenPdf::42                     284                       # What read queue length does an incoming req see (Count)
system.mem_ctrl.rdQLenPdf::43                     257                       # What read queue length does an incoming req see (Count)
system.mem_ctrl.rdQLenPdf::44                     266                       # What read queue length does an incoming req see (Count)
system.mem_ctrl.rdQLenPdf::45                     263                       # What read queue length does an incoming req see (Count)
system.mem_ctrl.rdQLenPdf::46                     257                       # What read queue length does an incoming req see (Count)
system.mem_ctrl.rdQLenPdf::47                     243                       # What read queue length does an incoming req see (Count)
system.mem_ctrl.rdQLenPdf::48                     239                       # What read queue length does an incoming req see (Count)
system.mem_ctrl.rdQLenPdf::49                     256                       # What read queue length does an incoming req see (Count)
system.mem_ctrl.rdQLenPdf::50                     247                       # What read queue length does an incoming req see (Count)
system.mem_ctrl.rdQLenPdf::51                     234                       # What read queue length does an incoming req see (Count)
system.mem_ctrl.rdQLenPdf::52                     227                       # What read queue length does an incoming req see (Count)
system.mem_ctrl.rdQLenPdf::53                     214                       # What read queue length does an incoming req see (Count)
system.mem_ctrl.rdQLenPdf::54                     201                       # What read queue length does an incoming req see (Count)
system.mem_ctrl.rdQLenPdf::55                     198                       # What read queue length does an incoming req see (Count)
system.mem_ctrl.rdQLenPdf::56                     188                       # What read queue length does an incoming req see (Count)
system.mem_ctrl.rdQLenPdf::57                     181                       # What read queue length does an incoming req see (Count)
system.mem_ctrl.rdQLenPdf::58                     180                       # What read queue length does an incoming req see (Count)
system.mem_ctrl.rdQLenPdf::59                     168                       # What read queue length does an incoming req see (Count)
system.mem_ctrl.rdQLenPdf::60                     175                       # What read queue length does an incoming req see (Count)
system.mem_ctrl.rdQLenPdf::61                     170                       # What read queue length does an incoming req see (Count)
system.mem_ctrl.rdQLenPdf::62                     164                       # What read queue length does an incoming req see (Count)
system.mem_ctrl.rdQLenPdf::63                    3373                       # What read queue length does an incoming req see (Count)
system.mem_ctrl.wrQLenPdf::0                        1                       # What write queue length does an incoming req see (Count)
system.mem_ctrl.wrQLenPdf::1                        1                       # What write queue length does an incoming req see (Count)
system.mem_ctrl.wrQLenPdf::2                        1                       # What write queue length does an incoming req see (Count)
system.mem_ctrl.wrQLenPdf::3                        1                       # What write queue length does an incoming req see (Count)
system.mem_ctrl.wrQLenPdf::4                        1                       # What write queue length does an incoming req see (Count)
system.mem_ctrl.wrQLenPdf::5                        1                       # What write queue length does an incoming req see (Count)
system.mem_ctrl.wrQLenPdf::6                        1                       # What write queue length does an incoming req see (Count)
system.mem_ctrl.wrQLenPdf::7                        1                       # What write queue length does an incoming req see (Count)
system.mem_ctrl.wrQLenPdf::8                        1                       # What write queue length does an incoming req see (Count)
system.mem_ctrl.wrQLenPdf::9                        1                       # What write queue length does an incoming req see (Count)
system.mem_ctrl.wrQLenPdf::10                       1                       # What write queue length does an incoming req see (Count)
system.mem_ctrl.wrQLenPdf::11                       1                       # What write queue length does an incoming req see (Count)
system.mem_ctrl.wrQLenPdf::12                       1                       # What write queue length does an incoming req see (Count)
system.mem_ctrl.wrQLenPdf::13                       1                       # What write queue length does an incoming req see (Count)
system.mem_ctrl.wrQLenPdf::14                       1                       # What write queue length does an incoming req see (Count)
system.mem_ctrl.wrQLenPdf::15                       1                       # What write queue length does an incoming req see (Count)
system.mem_ctrl.wrQLenPdf::16                       1                       # What write queue length does an incoming req see (Count)
system.mem_ctrl.wrQLenPdf::17                       1                       # What write queue length does an incoming req see (Count)
system.mem_ctrl.wrQLenPdf::18                       1                       # What write queue length does an incoming req see (Count)
system.mem_ctrl.wrQLenPdf::19                       1                       # What write queue length does an incoming req see (Count)
system.mem_ctrl.wrQLenPdf::20                       1                       # What write queue length does an incoming req see (Count)
system.mem_ctrl.wrQLenPdf::21                       1                       # What write queue length does an incoming req see (Count)
system.mem_ctrl.wrQLenPdf::22                       1                       # What write queue length does an incoming req see (Count)
system.mem_ctrl.wrQLenPdf::23                       1                       # What write queue length does an incoming req see (Count)
system.mem_ctrl.wrQLenPdf::24                       1                       # What write queue length does an incoming req see (Count)
system.mem_ctrl.wrQLenPdf::25                       1                       # What write queue length does an incoming req see (Count)
system.mem_ctrl.wrQLenPdf::26                       1                       # What write queue length does an incoming req see (Count)
system.mem_ctrl.wrQLenPdf::27                       1                       # What write queue length does an incoming req see (Count)
system.mem_ctrl.wrQLenPdf::28                       1                       # What write queue length does an incoming req see (Count)
system.mem_ctrl.wrQLenPdf::29                       1                       # What write queue length does an incoming req see (Count)
system.mem_ctrl.wrQLenPdf::30                       1                       # What write queue length does an incoming req see (Count)
system.mem_ctrl.wrQLenPdf::31                       1                       # What write queue length does an incoming req see (Count)
system.mem_ctrl.wrQLenPdf::32                       1                       # What write queue length does an incoming req see (Count)
system.mem_ctrl.wrQLenPdf::33                       1                       # What write queue length does an incoming req see (Count)
system.mem_ctrl.wrQLenPdf::34                       1                       # What write queue length does an incoming req see (Count)
system.mem_ctrl.wrQLenPdf::35                       1                       # What write queue length does an incoming req see (Count)
system.mem_ctrl.wrQLenPdf::36                       1                       # What write queue length does an incoming req see (Count)
system.mem_ctrl.wrQLenPdf::37                       1                       # What write queue length does an incoming req see (Count)
system.mem_ctrl.wrQLenPdf::38                       1                       # What write queue length does an incoming req see (Count)
system.mem_ctrl.wrQLenPdf::39                       1                       # What write queue length does an incoming req see (Count)
system.mem_ctrl.wrQLenPdf::40                       1                       # What write queue length does an incoming req see (Count)
system.mem_ctrl.wrQLenPdf::41                       1                       # What write queue length does an incoming req see (Count)
system.mem_ctrl.wrQLenPdf::42                       1                       # What write queue length does an incoming req see (Count)
system.mem_ctrl.wrQLenPdf::43                       1                       # What write queue length does an incoming req see (Count)
system.mem_ctrl.wrQLenPdf::44                       1                       # What write queue length does an incoming req see (Count)
system.mem_ctrl.wrQLenPdf::45                       1                       # What write queue length does an incoming req see (Count)
system.mem_ctrl.wrQLenPdf::46                       1                       # What write queue length does an incoming req see (Count)
system.mem_ctrl.wrQLenPdf::47                       1                       # What write queue length does an incoming req see (Count)
system.mem_ctrl.wrQLenPdf::48                       1                       # What write queue length does an incoming req see (Count)
system.mem_ctrl.wrQLenPdf::49                       1                       # What write queue length does an incoming req see (Count)
system.mem_ctrl.wrQLenPdf::50                       1                       # What write queue length does an incoming req see (Count)
system.mem_ctrl.wrQLenPdf::51                       1                       # What write queue length does an incoming req see (Count)
system.mem_ctrl.wrQLenPdf::52                       1                       # What write queue length does an incoming req see (Count)
system.mem_ctrl.wrQLenPdf::53                       1                       # What write queue length does an incoming req see (Count)
system.mem_ctrl.wrQLenPdf::54                       1                       # What write queue length does an incoming req see (Count)
system.mem_ctrl.wrQLenPdf::55                       1                       # What write queue length does an incoming req see (Count)
system.mem_ctrl.wrQLenPdf::56                       1                       # What write queue length does an incoming req see (Count)
system.mem_ctrl.wrQLenPdf::57                       1                       # What write queue length does an incoming req see (Count)
system.mem_ctrl.wrQLenPdf::58                       1                       # What write queue length does an incoming req see (Count)
system.mem_ctrl.wrQLenPdf::59                       1                       # What write queue length does an incoming req see (Count)
system.mem_ctrl.wrQLenPdf::60                       1                       # What write queue length does an incoming req see (Count)
system.mem_ctrl.wrQLenPdf::61                       1                       # What write queue length does an incoming req see (Count)
system.mem_ctrl.wrQLenPdf::62                       1                       # What write queue length does an incoming req see (Count)
system.mem_ctrl.wrQLenPdf::63                       1                       # What write queue length does an incoming req see (Count)
system.mem_ctrl.wrQLenPdf::64                       1                       # What write queue length does an incoming req see (Count)
system.mem_ctrl.wrQLenPdf::65                       1                       # What write queue length does an incoming req see (Count)
system.mem_ctrl.wrQLenPdf::66                       1                       # What write queue length does an incoming req see (Count)
system.mem_ctrl.wrQLenPdf::67                       1                       # What write queue length does an incoming req see (Count)
system.mem_ctrl.wrQLenPdf::68                       1                       # What write queue length does an incoming req see (Count)
system.mem_ctrl.wrQLenPdf::69                       1                       # What write queue length does an incoming req see (Count)
system.mem_ctrl.wrQLenPdf::70                       1                       # What write queue length does an incoming req see (Count)
system.mem_ctrl.wrQLenPdf::71                       1                       # What write queue length does an incoming req see (Count)
system.mem_ctrl.wrQLenPdf::72                       1                       # What write queue length does an incoming req see (Count)
system.mem_ctrl.wrQLenPdf::73                       1                       # What write queue length does an incoming req see (Count)
system.mem_ctrl.wrQLenPdf::74                       1                       # What write queue length does an incoming req see (Count)
system.mem_ctrl.wrQLenPdf::75                       1                       # What write queue length does an incoming req see (Count)
system.mem_ctrl.wrQLenPdf::76                       1                       # What write queue length does an incoming req see (Count)
system.mem_ctrl.wrQLenPdf::77                       1                       # What write queue length does an incoming req see (Count)
system.mem_ctrl.wrQLenPdf::78                       1                       # What write queue length does an incoming req see (Count)
system.mem_ctrl.wrQLenPdf::79                       1                       # What write queue length does an incoming req see (Count)
system.mem_ctrl.wrQLenPdf::80                       1                       # What write queue length does an incoming req see (Count)
system.mem_ctrl.wrQLenPdf::81                       1                       # What write queue length does an incoming req see (Count)
system.mem_ctrl.wrQLenPdf::82                       1                       # What write queue length does an incoming req see (Count)
system.mem_ctrl.wrQLenPdf::83                       1                       # What write queue length does an incoming req see (Count)
system.mem_ctrl.wrQLenPdf::84                       1                       # What write queue length does an incoming req see (Count)
system.mem_ctrl.wrQLenPdf::85                       1                       # What write queue length does an incoming req see (Count)
system.mem_ctrl.wrQLenPdf::86                       1                       # What write queue length does an incoming req see (Count)
system.mem_ctrl.wrQLenPdf::87                       1                       # What write queue length does an incoming req see (Count)
system.mem_ctrl.wrQLenPdf::88                       1                       # What write queue length does an incoming req see (Count)
system.mem_ctrl.wrQLenPdf::89                       1                       # What write queue length does an incoming req see (Count)
system.mem_ctrl.wrQLenPdf::90                       1                       # What write queue length does an incoming req see (Count)
system.mem_ctrl.wrQLenPdf::91                       1                       # What write queue length does an incoming req see (Count)
system.mem_ctrl.wrQLenPdf::92                       1                       # What write queue length does an incoming req see (Count)
system.mem_ctrl.wrQLenPdf::93                       6                       # What write queue length does an incoming req see (Count)
system.mem_ctrl.wrQLenPdf::94                      10                       # What write queue length does an incoming req see (Count)
system.mem_ctrl.wrQLenPdf::95                      19                       # What write queue length does an incoming req see (Count)
system.mem_ctrl.wrQLenPdf::96                      22                       # What write queue length does an incoming req see (Count)
system.mem_ctrl.wrQLenPdf::97                      31                       # What write queue length does an incoming req see (Count)
system.mem_ctrl.wrQLenPdf::98                      38                       # What write queue length does an incoming req see (Count)
system.mem_ctrl.wrQLenPdf::99                      47                       # What write queue length does an incoming req see (Count)
system.mem_ctrl.wrQLenPdf::100                     56                       # What write queue length does an incoming req see (Count)
system.mem_ctrl.wrQLenPdf::101                     64                       # What write queue length does an incoming req see (Count)
system.mem_ctrl.wrQLenPdf::102                     66                       # What write queue length does an incoming req see (Count)
system.mem_ctrl.wrQLenPdf::103                     70                       # What write queue length does an incoming req see (Count)
system.mem_ctrl.wrQLenPdf::104                     81                       # What write queue length does an incoming req see (Count)
system.mem_ctrl.wrQLenPdf::105                     88                       # What write queue length does an incoming req see (Count)
system.mem_ctrl.wrQLenPdf::106                     90                       # What write queue length does an incoming req see (Count)
system.mem_ctrl.wrQLenPdf::107                    108                       # What write queue length does an incoming req see (Count)
system.mem_ctrl.wrQLenPdf::108                    110                       # What write queue length does an incoming req see (Count)
system.mem_ctrl.wrQLenPdf::109                    100                       # What write queue length does an incoming req see (Count)
system.mem_ctrl.wrQLenPdf::110                     91                       # What write queue length does an incoming req see (Count)
system.mem_ctrl.wrQLenPdf::111                     88                       # What write queue length does an incoming req see (Count)
system.mem_ctrl.wrQLenPdf::112                     92                       # What write queue length does an incoming req see (Count)
system.mem_ctrl.wrQLenPdf::113                     90                       # What write queue length does an incoming req see (Count)
system.mem_ctrl.wrQLenPdf::114                     90                       # What write queue length does an incoming req see (Count)
system.mem_ctrl.wrQLenPdf::115                     97                       # What write queue length does an incoming req see (Count)
system.mem_ctrl.wrQLenPdf::116                     99                       # What write queue length does an incoming req see (Count)
system.mem_ctrl.wrQLenPdf::117                     94                       # What write queue length does an incoming req see (Count)
system.mem_ctrl.wrQLenPdf::118                    102                       # What write queue length does an incoming req see (Count)
system.mem_ctrl.wrQLenPdf::119                    109                       # What write queue length does an incoming req see (Count)
system.mem_ctrl.wrQLenPdf::120                    115                       # What write queue length does an incoming req see (Count)
system.mem_ctrl.wrQLenPdf::121                    126                       # What write queue length does an incoming req see (Count)
system.mem_ctrl.wrQLenPdf::122                    120                       # What write queue length does an incoming req see (Count)
system.mem_ctrl.wrQLenPdf::123                    130                       # What write queue length does an incoming req see (Count)
system.mem_ctrl.wrQLenPdf::124                    134                       # What write queue length does an incoming req see (Count)
system.mem_ctrl.wrQLenPdf::125                    159                       # What write queue length does an incoming req see (Count)
system.mem_ctrl.wrQLenPdf::126                    340                       # What write queue length does an incoming req see (Count)
system.mem_ctrl.wrQLenPdf::127                  15489                       # What write queue length does an incoming req see (Count)
system.mem_ctrl.rdPerTurnAround::samples         1160                       # Reads before turning the bus around for writes (Count)
system.mem_ctrl.rdPerTurnAround::mean       15.755172                       # Reads before turning the bus around for writes (Count)
system.mem_ctrl.rdPerTurnAround::gmean      15.652130                       # Reads before turning the bus around for writes (Count)
system.mem_ctrl.rdPerTurnAround::stdev       1.574842                       # Reads before turning the bus around for writes (Count)
system.mem_ctrl.rdPerTurnAround::4                  2      0.17%      0.17% # Reads before turning the bus around for writes (Count)
system.mem_ctrl.rdPerTurnAround::6                  3      0.26%      0.43% # Reads before turning the bus around for writes (Count)
system.mem_ctrl.rdPerTurnAround::7                  3      0.26%      0.69% # Reads before turning the bus around for writes (Count)
system.mem_ctrl.rdPerTurnAround::8                  3      0.26%      0.95% # Reads before turning the bus around for writes (Count)
system.mem_ctrl.rdPerTurnAround::9                  6      0.52%      1.47% # Reads before turning the bus around for writes (Count)
system.mem_ctrl.rdPerTurnAround::10                 7      0.60%      2.07% # Reads before turning the bus around for writes (Count)
system.mem_ctrl.rdPerTurnAround::11                 7      0.60%      2.67% # Reads before turning the bus around for writes (Count)
system.mem_ctrl.rdPerTurnAround::12                14      1.21%      3.88% # Reads before turning the bus around for writes (Count)
system.mem_ctrl.rdPerTurnAround::13                14      1.21%      5.09% # Reads before turning the bus around for writes (Count)
system.mem_ctrl.rdPerTurnAround::14                21      1.81%      6.90% # Reads before turning the bus around for writes (Count)
system.mem_ctrl.rdPerTurnAround::15                17      1.47%      8.36% # Reads before turning the bus around for writes (Count)
system.mem_ctrl.rdPerTurnAround::16              1046     90.17%     98.53% # Reads before turning the bus around for writes (Count)
system.mem_ctrl.rdPerTurnAround::17                 2      0.17%     98.71% # Reads before turning the bus around for writes (Count)
system.mem_ctrl.rdPerTurnAround::18                 2      0.17%     98.88% # Reads before turning the bus around for writes (Count)
system.mem_ctrl.rdPerTurnAround::19                 2      0.17%     99.05% # Reads before turning the bus around for writes (Count)
system.mem_ctrl.rdPerTurnAround::20                 2      0.17%     99.22% # Reads before turning the bus around for writes (Count)
system.mem_ctrl.rdPerTurnAround::22                 2      0.17%     99.40% # Reads before turning the bus around for writes (Count)
system.mem_ctrl.rdPerTurnAround::23                 1      0.09%     99.48% # Reads before turning the bus around for writes (Count)
system.mem_ctrl.rdPerTurnAround::24                 1      0.09%     99.57% # Reads before turning the bus around for writes (Count)
system.mem_ctrl.rdPerTurnAround::25                 2      0.17%     99.74% # Reads before turning the bus around for writes (Count)
system.mem_ctrl.rdPerTurnAround::26                 1      0.09%     99.83% # Reads before turning the bus around for writes (Count)
system.mem_ctrl.rdPerTurnAround::27                 2      0.17%    100.00% # Reads before turning the bus around for writes (Count)
system.mem_ctrl.rdPerTurnAround::total           1160                       # Reads before turning the bus around for writes (Count)
system.mem_ctrl.wrPerTurnAround::samples         1160                       # Writes before turning the bus around for reads (Count)
system.mem_ctrl.wrPerTurnAround::mean              16                       # Writes before turning the bus around for reads (Count)
system.mem_ctrl.wrPerTurnAround::gmean      16.000000                       # Writes before turning the bus around for reads (Count)
system.mem_ctrl.wrPerTurnAround::16              1160    100.00%    100.00% # Writes before turning the bus around for reads (Count)
system.mem_ctrl.wrPerTurnAround::total           1160                       # Writes before turning the bus around for reads (Count)
system.mem_ctrl.bytesReadWrQ                        0                       # Total number of bytes read from write queue (Byte)
system.mem_ctrl.bytesReadSys                  1174336                       # Total read bytes from the system interface side (Byte)
system.mem_ctrl.bytesWrittenSys               1194496                       # Total written bytes from the system interface side (Byte)
system.mem_ctrl.avgRdBWSys               1174246372.12290883                       # Average system read bandwidth in Byte/s ((Byte/Second))
system.mem_ctrl.avgWrBWSys               1194404833.46787119                       # Average system write bandwidth in Byte/s ((Byte/Second))
system.mem_ctrl.totGap                     1000075328                       # Total gap between requests (Tick)
system.mem_ctrl.avgGap                       27019.57                       # Average gap between requests ((Tick/Count))
system.mem_ctrl.requestorReadBytes::generator      1170240                       # Per-requestor bytes read from memory (Byte)
system.mem_ctrl.requestorWriteBytes::generator      1187840                       # Per-requestor bytes write to memory (Byte)
system.mem_ctrl.requestorReadRate::generator 1170150684.738535404205                       # Per-requestor bytes read from memory rate ((Byte/Second))
system.mem_ctrl.requestorWriteRate::generator 1187749341.468264579773                       # Per-requestor bytes write to memory rate ((Byte/Second))
system.mem_ctrl.requestorReadAccesses::generator        18349                       # Per-requestor read serviced memory accesses (Count)
system.mem_ctrl.requestorWriteAccesses::generator        18664                       # Per-requestor write serviced memory accesses (Count)
system.mem_ctrl.requestorReadTotalLat::generator  30655051387                       # Per-requestor read total memory access latency (Tick)
system.mem_ctrl.requestorWriteTotalLat::generator 126391119186                       # Per-requestor write total memory access latency (Tick)
system.mem_ctrl.requestorReadAvgLat::generator   1670666.05                       # Per-requestor read average memory access latency ((Tick/Count))
system.mem_ctrl.requestorWriteAvgLat::generator   6771920.23                       # Per-requestor write average memory access latency ((Tick/Count))
system.mem_ctrl.dram.bytesRead::generator      1170240                       # Number of bytes read from this memory (Byte)
system.mem_ctrl.dram.bytesRead::total         1170240                       # Number of bytes read from this memory (Byte)
system.mem_ctrl.dram.bytesWritten::generator      1194496                       # Number of bytes written to this memory (Byte)
system.mem_ctrl.dram.bytesWritten::total      1194496                       # Number of bytes written to this memory (Byte)
system.mem_ctrl.dram.numReads::generator        18285                       # Number of read requests responded to by this memory (Count)
system.mem_ctrl.dram.numReads::total            18285                       # Number of read requests responded to by this memory (Count)
system.mem_ctrl.dram.numWrites::generator        18664                       # Number of write requests responded to by this memory (Count)
system.mem_ctrl.dram.numWrites::total           18664                       # Number of write requests responded to by this memory (Count)
system.mem_ctrl.dram.bwRead::generator     1170150685                       # Total read bandwidth from this memory ((Byte/Second))
system.mem_ctrl.dram.bwRead::total         1170150685                       # Total read bandwidth from this memory ((Byte/Second))
system.mem_ctrl.dram.bwWrite::generator    1194404833                       # Write bandwidth from this memory ((Byte/Second))
system.mem_ctrl.dram.bwWrite::total        1194404833                       # Write bandwidth from this memory ((Byte/Second))
system.mem_ctrl.dram.bwTotal::generator    2364555518                       # Total bandwidth to/from this memory ((Byte/Second))
system.mem_ctrl.dram.bwTotal::total        2364555518                       # Total bandwidth to/from this memory ((Byte/Second))
system.mem_ctrl.dram.readBursts                 18285                       # Number of NVM read bursts (Count)
system.mem_ctrl.dram.writeBursts                18560                       # Number of NVM write bursts (Count)
system.mem_ctrl.dram.perBankRdBursts::0          1136                       # Per bank write bursts (Count)
system.mem_ctrl.dram.perBankRdBursts::1          1147                       # Per bank write bursts (Count)
system.mem_ctrl.dram.perBankRdBursts::2          1151                       # Per bank write bursts (Count)
system.mem_ctrl.dram.perBankRdBursts::3          1144                       # Per bank write bursts (Count)
system.mem_ctrl.dram.perBankRdBursts::4          1130                       # Per bank write bursts (Count)
system.mem_ctrl.dram.perBankRdBursts::5          1139                       # Per bank write bursts (Count)
system.mem_ctrl.dram.perBankRdBursts::6          1208                       # Per bank write bursts (Count)
system.mem_ctrl.dram.perBankRdBursts::7          1114                       # Per bank write bursts (Count)
system.mem_ctrl.dram.perBankRdBursts::8          1164                       # Per bank write bursts (Count)
system.mem_ctrl.dram.perBankRdBursts::9          1133                       # Per bank write bursts (Count)
system.mem_ctrl.dram.perBankRdBursts::10         1123                       # Per bank write bursts (Count)
system.mem_ctrl.dram.perBankRdBursts::11         1132                       # Per bank write bursts (Count)
system.mem_ctrl.dram.perBankRdBursts::12         1135                       # Per bank write bursts (Count)
system.mem_ctrl.dram.perBankRdBursts::13         1197                       # Per bank write bursts (Count)
system.mem_ctrl.dram.perBankRdBursts::14         1092                       # Per bank write bursts (Count)
system.mem_ctrl.dram.perBankRdBursts::15         1140                       # Per bank write bursts (Count)
system.mem_ctrl.dram.perBankWrBursts::0          1181                       # Per bank write bursts (Count)
system.mem_ctrl.dram.perBankWrBursts::1          1205                       # Per bank write bursts (Count)
system.mem_ctrl.dram.perBankWrBursts::2          1149                       # Per bank write bursts (Count)
system.mem_ctrl.dram.perBankWrBursts::3          1168                       # Per bank write bursts (Count)
system.mem_ctrl.dram.perBankWrBursts::4          1136                       # Per bank write bursts (Count)
system.mem_ctrl.dram.perBankWrBursts::5          1141                       # Per bank write bursts (Count)
system.mem_ctrl.dram.perBankWrBursts::6          1124                       # Per bank write bursts (Count)
system.mem_ctrl.dram.perBankWrBursts::7          1095                       # Per bank write bursts (Count)
system.mem_ctrl.dram.perBankWrBursts::8          1161                       # Per bank write bursts (Count)
system.mem_ctrl.dram.perBankWrBursts::9          1208                       # Per bank write bursts (Count)
system.mem_ctrl.dram.perBankWrBursts::10         1148                       # Per bank write bursts (Count)
system.mem_ctrl.dram.perBankWrBursts::11         1182                       # Per bank write bursts (Count)
system.mem_ctrl.dram.perBankWrBursts::12         1174                       # Per bank write bursts (Count)
system.mem_ctrl.dram.perBankWrBursts::13         1187                       # Per bank write bursts (Count)
system.mem_ctrl.dram.perBankWrBursts::14         1145                       # Per bank write bursts (Count)
system.mem_ctrl.dram.perBankWrBursts::15         1156                       # Per bank write bursts (Count)
system.mem_ctrl.dram.totQLat              30335210167                       # Total ticks spent queuing (Tick)
system.mem_ctrl.dram.totBusLat               60925620                       # Total ticks spent in databus transfers (Tick)
system.mem_ctrl.dram.totMemAccLat         30655051387                       # Total ticks spent from burst creation until serviced by the NVM (Tick)
system.mem_ctrl.dram.avgQLat               1659021.61                       # Average queueing delay per NVM burst ((Tick/Count))
system.mem_ctrl.dram.avgBusLat                3332.00                       # Average bus latency per NVM burst ((Tick/Count))
system.mem_ctrl.dram.avgMemAccLat          1676513.61                       # Average memory access latency per NVM burst ((Tick/Count))
system.mem_ctrl.dram.avgRdBW                  1170.15                       # Average DRAM read bandwidth in MiBytes/s ((Byte/Second))
system.mem_ctrl.dram.avgWrBW                  1187.75                       # Average DRAM write bandwidth in MiBytes/s ((Byte/Second))
system.mem_ctrl.dram.peakBW                  19207.00                       # Theoretical peak bandwidth in MiByte/s ((Byte/Second))
system.mem_ctrl.dram.busUtil                    12.28                       # NVM Data bus utilization in percentage (Ratio)
system.mem_ctrl.dram.busUtilRead                 6.09                       # NVM Data bus read utilization in percentage (Ratio)
system.mem_ctrl.dram.busUtilWrite                6.18                       # NVM Data bus write utilization in percentage (Ratio)
system.mem_ctrl.dram.pendingReads::samples        18285                       # Reads issued to NVM for which data has not been transferred (Count)
system.mem_ctrl.dram.pendingReads::mean     36.225595                       # Reads issued to NVM for which data has not been transferred (Count)
system.mem_ctrl.dram.pendingReads::stdev    19.472445                       # Reads issued to NVM for which data has not been transferred (Count)
system.mem_ctrl.dram.pendingReads::0              112      0.61%      0.61% # Reads issued to NVM for which data has not been transferred (Count)
system.mem_ctrl.dram.pendingReads::1              130      0.71%      1.32% # Reads issued to NVM for which data has not been transferred (Count)
system.mem_ctrl.dram.pendingReads::2              147      0.80%      2.13% # Reads issued to NVM for which data has not been transferred (Count)
system.mem_ctrl.dram.pendingReads::3              167      0.91%      3.04% # Reads issued to NVM for which data has not been transferred (Count)
system.mem_ctrl.dram.pendingReads::4              181      0.99%      4.03% # Reads issued to NVM for which data has not been transferred (Count)
system.mem_ctrl.dram.pendingReads::5              199      1.09%      5.12% # Reads issued to NVM for which data has not been transferred (Count)
system.mem_ctrl.dram.pendingReads::6              217      1.19%      6.31% # Reads issued to NVM for which data has not been transferred (Count)
system.mem_ctrl.dram.pendingReads::7              231      1.26%      7.57% # Reads issued to NVM for which data has not been transferred (Count)
system.mem_ctrl.dram.pendingReads::8              242      1.32%      8.89% # Reads issued to NVM for which data has not been transferred (Count)
system.mem_ctrl.dram.pendingReads::9              249      1.36%     10.25% # Reads issued to NVM for which data has not been transferred (Count)
system.mem_ctrl.dram.pendingReads::10             264      1.44%     11.70% # Reads issued to NVM for which data has not been transferred (Count)
system.mem_ctrl.dram.pendingReads::11             266      1.45%     13.15% # Reads issued to NVM for which data has not been transferred (Count)
system.mem_ctrl.dram.pendingReads::12             274      1.50%     14.65% # Reads issued to NVM for which data has not been transferred (Count)
system.mem_ctrl.dram.pendingReads::13             279      1.53%     16.18% # Reads issued to NVM for which data has not been transferred (Count)
system.mem_ctrl.dram.pendingReads::14             267      1.46%     17.64% # Reads issued to NVM for which data has not been transferred (Count)
system.mem_ctrl.dram.pendingReads::15             280      1.53%     19.17% # Reads issued to NVM for which data has not been transferred (Count)
system.mem_ctrl.dram.pendingReads::16             293      1.60%     20.77% # Reads issued to NVM for which data has not been transferred (Count)
system.mem_ctrl.dram.pendingReads::17             291      1.59%     22.36% # Reads issued to NVM for which data has not been transferred (Count)
system.mem_ctrl.dram.pendingReads::18             265      1.45%     23.81% # Reads issued to NVM for which data has not been transferred (Count)
system.mem_ctrl.dram.pendingReads::19             264      1.44%     25.26% # Reads issued to NVM for which data has not been transferred (Count)
system.mem_ctrl.dram.pendingReads::20             272      1.49%     26.74% # Reads issued to NVM for which data has not been transferred (Count)
system.mem_ctrl.dram.pendingReads::21             273      1.49%     28.24% # Reads issued to NVM for which data has not been transferred (Count)
system.mem_ctrl.dram.pendingReads::22             261      1.43%     29.66% # Reads issued to NVM for which data has not been transferred (Count)
system.mem_ctrl.dram.pendingReads::23             270      1.48%     31.14% # Reads issued to NVM for which data has not been transferred (Count)
system.mem_ctrl.dram.pendingReads::24             265      1.45%     32.59% # Reads issued to NVM for which data has not been transferred (Count)
system.mem_ctrl.dram.pendingReads::25             264      1.44%     34.03% # Reads issued to NVM for which data has not been transferred (Count)
system.mem_ctrl.dram.pendingReads::26             261      1.43%     35.46% # Reads issued to NVM for which data has not been transferred (Count)
system.mem_ctrl.dram.pendingReads::27             276      1.51%     36.97% # Reads issued to NVM for which data has not been transferred (Count)
system.mem_ctrl.dram.pendingReads::28             267      1.46%     38.43% # Reads issued to NVM for which data has not been transferred (Count)
system.mem_ctrl.dram.pendingReads::29             266      1.45%     39.89% # Reads issued to NVM for which data has not been transferred (Count)
system.mem_ctrl.dram.pendingReads::30             270      1.48%     41.36% # Reads issued to NVM for which data has not been transferred (Count)
system.mem_ctrl.dram.pendingReads::31             258      1.41%     42.77% # Reads issued to NVM for which data has not been transferred (Count)
system.mem_ctrl.dram.pendingReads::32             265      1.45%     44.22% # Reads issued to NVM for which data has not been transferred (Count)
system.mem_ctrl.dram.pendingReads::33             267      1.46%     45.68% # Reads issued to NVM for which data has not been transferred (Count)
system.mem_ctrl.dram.pendingReads::34             278      1.52%     47.20% # Reads issued to NVM for which data has not been transferred (Count)
system.mem_ctrl.dram.pendingReads::35             261      1.43%     48.63% # Reads issued to NVM for which data has not been transferred (Count)
system.mem_ctrl.dram.pendingReads::36             264      1.44%     50.07% # Reads issued to NVM for which data has not been transferred (Count)
system.mem_ctrl.dram.pendingReads::37             264      1.44%     51.52% # Reads issued to NVM for which data has not been transferred (Count)
system.mem_ctrl.dram.pendingReads::38             278      1.52%     53.04% # Reads issued to NVM for which data has not been transferred (Count)
system.mem_ctrl.dram.pendingReads::39             290      1.59%     54.62% # Reads issued to NVM for which data has not been transferred (Count)
system.mem_ctrl.dram.pendingReads::40             284      1.55%     56.18% # Reads issued to NVM for which data has not been transferred (Count)
system.mem_ctrl.dram.pendingReads::41             270      1.48%     57.65% # Reads issued to NVM for which data has not been transferred (Count)
system.mem_ctrl.dram.pendingReads::42             269      1.47%     59.12% # Reads issued to NVM for which data has not been transferred (Count)
system.mem_ctrl.dram.pendingReads::43             269      1.47%     60.60% # Reads issued to NVM for which data has not been transferred (Count)
system.mem_ctrl.dram.pendingReads::44             265      1.45%     62.05% # Reads issued to NVM for which data has not been transferred (Count)
system.mem_ctrl.dram.pendingReads::45             266      1.45%     63.50% # Reads issued to NVM for which data has not been transferred (Count)
system.mem_ctrl.dram.pendingReads::46             248      1.36%     64.86% # Reads issued to NVM for which data has not been transferred (Count)
system.mem_ctrl.dram.pendingReads::47             240      1.31%     66.17% # Reads issued to NVM for which data has not been transferred (Count)
system.mem_ctrl.dram.pendingReads::48             237      1.30%     67.47% # Reads issued to NVM for which data has not been transferred (Count)
system.mem_ctrl.dram.pendingReads::49             249      1.36%     68.83% # Reads issued to NVM for which data has not been transferred (Count)
system.mem_ctrl.dram.pendingReads::50             237      1.30%     70.12% # Reads issued to NVM for which data has not been transferred (Count)
system.mem_ctrl.dram.pendingReads::51             242      1.32%     71.45% # Reads issued to NVM for which data has not been transferred (Count)
system.mem_ctrl.dram.pendingReads::52             202      1.10%     72.55% # Reads issued to NVM for which data has not been transferred (Count)
system.mem_ctrl.dram.pendingReads::53             208      1.14%     73.69% # Reads issued to NVM for which data has not been transferred (Count)
system.mem_ctrl.dram.pendingReads::54             202      1.10%     74.79% # Reads issued to NVM for which data has not been transferred (Count)
system.mem_ctrl.dram.pendingReads::55             184      1.01%     75.80% # Reads issued to NVM for which data has not been transferred (Count)
system.mem_ctrl.dram.pendingReads::56             184      1.01%     76.81% # Reads issued to NVM for which data has not been transferred (Count)
system.mem_ctrl.dram.pendingReads::57             201      1.10%     77.91% # Reads issued to NVM for which data has not been transferred (Count)
system.mem_ctrl.dram.pendingReads::58             192      1.05%     78.96% # Reads issued to NVM for which data has not been transferred (Count)
system.mem_ctrl.dram.pendingReads::59             190      1.04%     79.99% # Reads issued to NVM for which data has not been transferred (Count)
system.mem_ctrl.dram.pendingReads::60             210      1.15%     81.14% # Reads issued to NVM for which data has not been transferred (Count)
system.mem_ctrl.dram.pendingReads::61             375      2.05%     83.19% # Reads issued to NVM for which data has not been transferred (Count)
system.mem_ctrl.dram.pendingReads::62             949      5.19%     88.38% # Reads issued to NVM for which data has not been transferred (Count)
system.mem_ctrl.dram.pendingReads::63            2124     11.62%    100.00% # Reads issued to NVM for which data has not been transferred (Count)
system.mem_ctrl.dram.pendingReads::total        18285                       # Reads issued to NVM for which data has not been transferred (Count)
system.mem_ctrl.dram.pendingWrites::samples        18500                       # Number of outstanding writes to NVM (Count)
system.mem_ctrl.dram.pendingWrites::mean    40.484000                       # Number of outstanding writes to NVM (Count)
system.mem_ctrl.dram.pendingWrites::gmean    33.100791                       # Number of outstanding writes to NVM (Count)
system.mem_ctrl.dram.pendingWrites::stdev    21.224360                       # Number of outstanding writes to NVM (Count)
system.mem_ctrl.dram.pendingWrites::1              38      0.21%      0.21% # Number of outstanding writes to NVM (Count)
system.mem_ctrl.dram.pendingWrites::2              66      0.36%      0.56% # Number of outstanding writes to NVM (Count)
system.mem_ctrl.dram.pendingWrites::3              97      0.52%      1.09% # Number of outstanding writes to NVM (Count)
system.mem_ctrl.dram.pendingWrites::4             112      0.61%      1.69% # Number of outstanding writes to NVM (Count)
system.mem_ctrl.dram.pendingWrites::5             126      0.68%      2.37% # Number of outstanding writes to NVM (Count)
system.mem_ctrl.dram.pendingWrites::6             146      0.79%      3.16% # Number of outstanding writes to NVM (Count)
system.mem_ctrl.dram.pendingWrites::7             168      0.91%      4.07% # Number of outstanding writes to NVM (Count)
system.mem_ctrl.dram.pendingWrites::8             203      1.10%      5.17% # Number of outstanding writes to NVM (Count)
system.mem_ctrl.dram.pendingWrites::9             217      1.17%      6.34% # Number of outstanding writes to NVM (Count)
system.mem_ctrl.dram.pendingWrites::10            251      1.36%      7.70% # Number of outstanding writes to NVM (Count)
system.mem_ctrl.dram.pendingWrites::11            261      1.41%      9.11% # Number of outstanding writes to NVM (Count)
system.mem_ctrl.dram.pendingWrites::12            280      1.51%     10.62% # Number of outstanding writes to NVM (Count)
system.mem_ctrl.dram.pendingWrites::13            285      1.54%     12.16% # Number of outstanding writes to NVM (Count)
system.mem_ctrl.dram.pendingWrites::14            294      1.59%     13.75% # Number of outstanding writes to NVM (Count)
system.mem_ctrl.dram.pendingWrites::15            306      1.65%     15.41% # Number of outstanding writes to NVM (Count)
system.mem_ctrl.dram.pendingWrites::16            329      1.78%     17.18% # Number of outstanding writes to NVM (Count)
system.mem_ctrl.dram.pendingWrites::17            308      1.66%     18.85% # Number of outstanding writes to NVM (Count)
system.mem_ctrl.dram.pendingWrites::18            294      1.59%     20.44% # Number of outstanding writes to NVM (Count)
system.mem_ctrl.dram.pendingWrites::19            279      1.51%     21.95% # Number of outstanding writes to NVM (Count)
system.mem_ctrl.dram.pendingWrites::20            293      1.58%     23.53% # Number of outstanding writes to NVM (Count)
system.mem_ctrl.dram.pendingWrites::21            283      1.53%     25.06% # Number of outstanding writes to NVM (Count)
system.mem_ctrl.dram.pendingWrites::22            272      1.47%     26.53% # Number of outstanding writes to NVM (Count)
system.mem_ctrl.dram.pendingWrites::23            259      1.40%     27.93% # Number of outstanding writes to NVM (Count)
system.mem_ctrl.dram.pendingWrites::24            240      1.30%     29.23% # Number of outstanding writes to NVM (Count)
system.mem_ctrl.dram.pendingWrites::25            238      1.29%     30.51% # Number of outstanding writes to NVM (Count)
system.mem_ctrl.dram.pendingWrites::26            226      1.22%     31.74% # Number of outstanding writes to NVM (Count)
system.mem_ctrl.dram.pendingWrites::27            226      1.22%     32.96% # Number of outstanding writes to NVM (Count)
system.mem_ctrl.dram.pendingWrites::28            235      1.27%     34.23% # Number of outstanding writes to NVM (Count)
system.mem_ctrl.dram.pendingWrites::29            244      1.32%     35.55% # Number of outstanding writes to NVM (Count)
system.mem_ctrl.dram.pendingWrites::30            242      1.31%     36.85% # Number of outstanding writes to NVM (Count)
system.mem_ctrl.dram.pendingWrites::31            230      1.24%     38.10% # Number of outstanding writes to NVM (Count)
system.mem_ctrl.dram.pendingWrites::32            234      1.26%     39.36% # Number of outstanding writes to NVM (Count)
system.mem_ctrl.dram.pendingWrites::33            236      1.28%     40.64% # Number of outstanding writes to NVM (Count)
system.mem_ctrl.dram.pendingWrites::34            232      1.25%     41.89% # Number of outstanding writes to NVM (Count)
system.mem_ctrl.dram.pendingWrites::35            234      1.26%     43.16% # Number of outstanding writes to NVM (Count)
system.mem_ctrl.dram.pendingWrites::36            232      1.25%     44.41% # Number of outstanding writes to NVM (Count)
system.mem_ctrl.dram.pendingWrites::37            237      1.28%     45.69% # Number of outstanding writes to NVM (Count)
system.mem_ctrl.dram.pendingWrites::38            239      1.29%     46.98% # Number of outstanding writes to NVM (Count)
system.mem_ctrl.dram.pendingWrites::39            247      1.34%     48.32% # Number of outstanding writes to NVM (Count)
system.mem_ctrl.dram.pendingWrites::40            253      1.37%     49.69% # Number of outstanding writes to NVM (Count)
system.mem_ctrl.dram.pendingWrites::41            251      1.36%     51.04% # Number of outstanding writes to NVM (Count)
system.mem_ctrl.dram.pendingWrites::42            251      1.36%     52.40% # Number of outstanding writes to NVM (Count)
system.mem_ctrl.dram.pendingWrites::43            255      1.38%     53.78% # Number of outstanding writes to NVM (Count)
system.mem_ctrl.dram.pendingWrites::44            251      1.36%     55.14% # Number of outstanding writes to NVM (Count)
system.mem_ctrl.dram.pendingWrites::45            255      1.38%     56.51% # Number of outstanding writes to NVM (Count)
system.mem_ctrl.dram.pendingWrites::46            262      1.42%     57.93% # Number of outstanding writes to NVM (Count)
system.mem_ctrl.dram.pendingWrites::47            266      1.44%     59.37% # Number of outstanding writes to NVM (Count)
system.mem_ctrl.dram.pendingWrites::48            247      1.34%     60.70% # Number of outstanding writes to NVM (Count)
system.mem_ctrl.dram.pendingWrites::49            246      1.33%     62.03% # Number of outstanding writes to NVM (Count)
system.mem_ctrl.dram.pendingWrites::50            249      1.35%     63.38% # Number of outstanding writes to NVM (Count)
system.mem_ctrl.dram.pendingWrites::51            256      1.38%     64.76% # Number of outstanding writes to NVM (Count)
system.mem_ctrl.dram.pendingWrites::52            264      1.43%     66.19% # Number of outstanding writes to NVM (Count)
system.mem_ctrl.dram.pendingWrites::53            253      1.37%     67.56% # Number of outstanding writes to NVM (Count)
system.mem_ctrl.dram.pendingWrites::54            259      1.40%     68.96% # Number of outstanding writes to NVM (Count)
system.mem_ctrl.dram.pendingWrites::55            268      1.45%     70.41% # Number of outstanding writes to NVM (Count)
system.mem_ctrl.dram.pendingWrites::56            281      1.52%     71.92% # Number of outstanding writes to NVM (Count)
system.mem_ctrl.dram.pendingWrites::57            286      1.55%     73.47% # Number of outstanding writes to NVM (Count)
system.mem_ctrl.dram.pendingWrites::58            278      1.50%     74.97% # Number of outstanding writes to NVM (Count)
system.mem_ctrl.dram.pendingWrites::59            288      1.56%     76.53% # Number of outstanding writes to NVM (Count)
system.mem_ctrl.dram.pendingWrites::60            291      1.57%     78.10% # Number of outstanding writes to NVM (Count)
system.mem_ctrl.dram.pendingWrites::61            273      1.48%     79.58% # Number of outstanding writes to NVM (Count)
system.mem_ctrl.dram.pendingWrites::62            276      1.49%     81.07% # Number of outstanding writes to NVM (Count)
system.mem_ctrl.dram.pendingWrites::63            289      1.56%     82.63% # Number of outstanding writes to NVM (Count)
system.mem_ctrl.dram.pendingWrites::64            282      1.52%     84.16% # Number of outstanding writes to NVM (Count)
system.mem_ctrl.dram.pendingWrites::65            269      1.45%     85.61% # Number of outstanding writes to NVM (Count)
system.mem_ctrl.dram.pendingWrites::66            254      1.37%     86.98% # Number of outstanding writes to NVM (Count)
system.mem_ctrl.dram.pendingWrites::67            249      1.35%     88.33% # Number of outstanding writes to NVM (Count)
system.mem_ctrl.dram.pendingWrites::68            239      1.29%     89.62% # Number of outstanding writes to NVM (Count)
system.mem_ctrl.dram.pendingWrites::69            231      1.25%     90.87% # Number of outstanding writes to NVM (Count)
system.mem_ctrl.dram.pendingWrites::70            210      1.14%     92.01% # Number of outstanding writes to NVM (Count)
system.mem_ctrl.dram.pendingWrites::71            199      1.08%     93.08% # Number of outstanding writes to NVM (Count)
system.mem_ctrl.dram.pendingWrites::72            171      0.92%     94.01% # Number of outstanding writes to NVM (Count)
system.mem_ctrl.dram.pendingWrites::73            164      0.89%     94.89% # Number of outstanding writes to NVM (Count)
system.mem_ctrl.dram.pendingWrites::74            150      0.81%     95.70% # Number of outstanding writes to NVM (Count)
system.mem_ctrl.dram.pendingWrites::75            137      0.74%     96.44% # Number of outstanding writes to NVM (Count)
system.mem_ctrl.dram.pendingWrites::76            119      0.64%     97.09% # Number of outstanding writes to NVM (Count)
system.mem_ctrl.dram.pendingWrites::77            107      0.58%     97.66% # Number of outstanding writes to NVM (Count)
system.mem_ctrl.dram.pendingWrites::78             90      0.49%     98.15% # Number of outstanding writes to NVM (Count)
system.mem_ctrl.dram.pendingWrites::79             68      0.37%     98.52% # Number of outstanding writes to NVM (Count)
system.mem_ctrl.dram.pendingWrites::80             60      0.32%     98.84% # Number of outstanding writes to NVM (Count)
system.mem_ctrl.dram.pendingWrites::81             50      0.27%     99.11% # Number of outstanding writes to NVM (Count)
system.mem_ctrl.dram.pendingWrites::82             43      0.23%     99.35% # Number of outstanding writes to NVM (Count)
system.mem_ctrl.dram.pendingWrites::83             32      0.17%     99.52% # Number of outstanding writes to NVM (Count)
system.mem_ctrl.dram.pendingWrites::84             24      0.13%     99.65% # Number of outstanding writes to NVM (Count)
system.mem_ctrl.dram.pendingWrites::85             20      0.11%     99.76% # Number of outstanding writes to NVM (Count)
system.mem_ctrl.dram.pendingWrites::86             15      0.08%     99.84% # Number of outstanding writes to NVM (Count)
system.mem_ctrl.dram.pendingWrites::87             12      0.06%     99.90% # Number of outstanding writes to NVM (Count)
system.mem_ctrl.dram.pendingWrites::88              8      0.04%     99.95% # Number of outstanding writes to NVM (Count)
system.mem_ctrl.dram.pendingWrites::89              5      0.03%     99.97% # Number of outstanding writes to NVM (Count)
system.mem_ctrl.dram.pendingWrites::90              3      0.02%     99.99% # Number of outstanding writes to NVM (Count)
system.mem_ctrl.dram.pendingWrites::91              2      0.01%    100.00% # Number of outstanding writes to NVM (Count)
system.mem_ctrl.dram.pendingWrites::total        18500                       # Number of outstanding writes to NVM (Count)
system.mem_ctrl.dram.bytesPerBank::samples        36909                       # Bytes read within a bank before loading new bank (Byte)
system.mem_ctrl.dram.bytesPerBank::mean            64                       # Bytes read within a bank before loading new bank (Byte)
system.mem_ctrl.dram.bytesPerBank::gmean    64.000000                       # Bytes read within a bank before loading new bank (Byte)
system.mem_ctrl.dram.bytesPerBank::64           36909    100.00%    100.00% # Bytes read within a bank before loading new bank (Byte)
system.mem_ctrl.dram.bytesPerBank::total        36909                       # Bytes read within a bank before loading new bank (Byte)
system.mem_ctrl.dram.power_state.pwrStateResidencyTicks::UNDEFINED   1000076328                       # Cumulative time (in ticks) in various power states (Tick)
system.mem_ctrl.power_state.pwrStateResidencyTicks::UNDEFINED   1000076328                       # Cumulative time (in ticks) in various power states (Tick)
system.workload.inst.arm                            0                       # number of arm instructions executed (Count)
system.workload.inst.quiesce                        0                       # number of quiesce instructions executed (Count)

---------- End Simulation Statistics   ----------
