
---------- Begin Simulation Statistics ----------
simSeconds                                   0.001000                       # Number of seconds simulated (Second)
simTicks                                   1000008968                       # Number of ticks simulated (Tick)
finalTick                                  1000008968                       # Number of ticks from beginning of simulation (restored from checkpoints and never reset) (Tick)
simFreq                                  1000000000000                       # The number of ticks per simulated second ((Tick/Second))
hostSeconds                                      0.41                       # Real time elapsed on the host (Second)
hostTickRate                               2448956989                       # The number of ticks simulated per host second (ticks/s) ((Tick/Second))
hostMemory                                    8488252                       # Number of bytes of host memory used (Byte)
system.clk_domain.clock                           250                       # Clock period in ticks (Tick)
system.clk_domain.voltage_domain.voltage            1                       # Voltage in Volts (Volt)
system.generator.numSuppressed                      0                       # Number of suppressed packets to non-memory space (Count)
system.generator.numPackets                     30572                       # Number of packets generated (Count)
system.generator.numRetries                     30415                       # Number of retries (Count)
system.generator.retryTicks                 996686608                       # Time spent waiting due to back-pressure (Tick)
system.generator.bytesRead                          0                       # Number of bytes read (Byte)
system.generator.bytesWritten                 1956544                       # Number of bytes written (Byte)
system.generator.totalReadLatency                   0                       # Total latency of read requests (Tick)
system.generator.totalWriteLatency         1302382071                       # Total latency of write requests (Tick)
system.generator.totalReads                         0                       # Total num of reads (Count)
system.generator.totalWrites                    30571                       # Total num of writes (Count)
system.generator.avgReadLatency                   nan                       # Avg latency of read requests ((Tick/Count))
system.generator.avgWriteLatency         42601.879919                       # Avg latency of write requests ((Tick/Count))
system.generator.readBW                             0                       # Read bandwidth ((Byte/Second))
system.generator.writeBW                 1956526453.870762                       # Write bandwidth ((Byte/Second))
system.generator.power_state.pwrStateResidencyTicks::UNDEFINED   1000008968                       # Cumulative time (in ticks) in various power states (Tick)
system.mem_ctrl.avgPriority_generator::samples     30572.00                       # Average QoS priority value for accepted requests (Count)
system.mem_ctrl.priorityMinLatency       0.000000145492                       # per QoS priority minimum request to response latency (Second)
system.mem_ctrl.priorityMaxLatency       0.000009947524                       # per QoS priority maximum request to response latency (Second)
system.mem_ctrl.numReadWriteTurnArounds             0                       # Number of turnarounds from READ to WRITE (Count)
system.mem_ctrl.numWriteReadTurnArounds             1                       # Number of turnarounds from WRITE to READ (Count)
system.mem_ctrl.numStayReadState                   65                       # Number of times bus staying in READ state (Count)
system.mem_ctrl.numStayWriteState               58482                       # Number of times bus staying in WRITE state (Count)
system.mem_ctrl.readReqs                            0                       # Number of read requests accepted (Count)
system.mem_ctrl.writeReqs                       30572                       # Number of write requests accepted (Count)
system.mem_ctrl.readBursts                          0                       # Number of controller read bursts, including those serviced by the write queue (Count)
system.mem_ctrl.writeBursts                     30572                       # Number of controller write bursts, including those merged in the write queue (Count)
system.mem_ctrl.servicedByWrQ                       0                       # Number of controller read bursts serviced by the write queue (Count)
system.mem_ctrl.mergedWrBursts                      0                       # Number of controller write bursts merged with an existing one (Count)
system.mem_ctrl.neitherReadNorWriteReqs             0                       # Number of requests that are neither read nor write (Count)
system.mem_ctrl.avgRdQLen                        0.00                       # Average read queue length when enqueuing ((Count/Tick))
system.mem_ctrl.avgWrQLen                      127.99                       # Average write queue length when enqueuing ((Count/Tick))
system.mem_ctrl.numRdRetry                          0                       # Number of times read queue was full causing retry (Count)
system.mem_ctrl.numWrRetry                      30415                       # Number of times write queue was full causing retry (Count)
system.mem_ctrl.readPktSize::0                      0                       # Read request sizes (log2) (Count)
system.mem_ctrl.readPktSize::1                      0                       # Read request sizes (log2) (Count)
system.mem_ctrl.readPktSize::2                      0                       # Read request sizes (log2) (Count)
system.mem_ctrl.readPktSize::3                      0                       # Read request sizes (log2) (Count)
system.mem_ctrl.readPktSize::4                      0                       # Read request sizes (log2) (Count)
system.mem_ctrl.readPktSize::5                      0                       # Read request sizes (log2) (Count)
system.mem_ctrl.readPktSize::6                      0                       # Read request sizes (log2) (Count)
system.mem_ctrl.writePktSize::0                     0                       # Write request sizes (log2) (Count)
system.mem_ctrl.writePktSize::1                     0                       # Write request sizes (log2) (Count)
system.mem_ctrl.writePktSize::2                     0                       # Write request sizes (log2) (Count)
system.mem_ctrl.writePktSize::3                     0                       # Write request sizes (log2) (Count)
system.mem_ctrl.writePktSize::4                     0                       # Write request sizes (log2) (Count)
system.mem_ctrl.writePktSize::5                     0                       # Write request sizes (log2) (Count)
system.mem_ctrl.writePktSize::6                 30572                       # Write request sizes (log2) (Count)
system.mem_ctrl.rdQLenPdf::0                        0                       # What read queue length does an incoming req see (Count)
system.mem_ctrl.rdQLenPdf::1                        0                       # What read queue length does an incoming req see (Count)
system.mem_ctrl.rdQLenPdf::2                        0                       # What read queue length does an incoming req see (Count)
system.mem_ctrl.rdQLenPdf::3                        0                       # What read queue length does an incoming req see (Count)
system.mem_ctrl.rdQLenPdf::4                        0                       # What read queue length does an incoming req see (Count)
system.mem_ctrl.rdQLenPdf::5                        0                       # What read queue length does an incoming req see (Count)
system.mem_ctrl.rdQLenPdf::6                        0                       # What read queue length does an incoming req see (Count)
system.mem_ctrl.rdQLenPdf::7                        0                       # What read queue length does an incoming req see (Count)
system.mem_ctrl.rdQLenPdf::8                        0                       # What read queue length does an incoming req see (Count)
system.mem_ctrl.rdQLenPdf::9                        0                       # What read queue length does an incoming req see (Count)
system.mem_ctrl.rdQLenPdf::10                       0                       # What read queue length does an incoming req see (Count)
system.mem_ctrl.rdQLenPdf::11                       0                       # What read queue length does an incoming req see (Count)
system.mem_ctrl.rdQLenPdf::12                       0                       # What read queue length does an incoming req see (Count)
system.mem_ctrl.rdQLenPdf::13                       0                       # What read queue length does an incoming req see (Count)
system.mem_ctrl.rdQLenPdf::14                       0                       # What read queue length does an incoming req see (Count)
system.mem_ctrl.rdQLenPdf::15                       0                       # What read queue length does an incoming req see (Count)
system.mem_ctrl.rdQLenPdf::16                       0                       # What read queue length does an incoming req see (Count)
system.mem_ctrl.rdQLenPdf::17                       0                       # What read queue length does an incoming req see (Count)
system.mem_ctrl.rdQLenPdf::18                       0                       # What read queue length does an incoming req see (Count)
system.mem_ctrl.rdQLenPdf::19                       0                       # What read queue length does an incoming req see (Count)
system.mem_ctrl.rdQLenPdf::20                       0                       # What read queue length does an incoming req see (Count)
system.mem_ctrl.rdQLenPdf::21                       0                       # What read queue length does an incoming req see (Count)
system.mem_ctrl.rdQLenPdf::22                       0                       # What read queue length does an incoming req see (Count)
system.mem_ctrl.rdQLenPdf::23                       0                       # What read queue length does an incoming req see (Count)
system.mem_ctrl.rdQLenPdf::24                       0                       # What read queue length does an incoming req see (Count)
system.mem_ctrl.rdQLenPdf::25                       0                       # What read queue length does an incoming req see (Count)
system.mem_ctrl.rdQLenPdf::26                       0                       # What read queue length does an incoming req see (Count)
system.mem_ctrl.rdQLenPdf::27                       0                       # What read queue length does an incoming req see (Count)
system.mem_ctrl.rdQLenPdf::28                       0                       # What read queue length does an incoming req see (Count)
system.mem_ctrl.rdQLenPdf::29                       0                       # What read queue length does an incoming req see (Count)
system.mem_ctrl.rdQLenPdf::30                       0                       # What read queue length does an incoming req see (Count)
system.mem_ctrl.rdQLenPdf::31                       0                       # What read queue length does an incoming req see (Count)
system.mem_ctrl.rdQLenPdf::32                       0                       # What read queue length does an incoming req see (Count)
system.mem_ctrl.rdQLenPdf::33                       0                       # What read queue length does an incoming req see (Count)
system.mem_ctrl.rdQLenPdf::34                       0                       # What read queue length does an incoming req see (Count)
system.mem_ctrl.rdQLenPdf::35                       0                       # What read queue length does an incoming req see (Count)
system.mem_ctrl.rdQLenPdf::36                       0                       # What read queue length does an incoming req see (Count)
system.mem_ctrl.rdQLenPdf::37                       0                       # What read queue length does an incoming req see (Count)
system.mem_ctrl.rdQLenPdf::38                       0                       # What read queue length does an incoming req see (Count)
system.mem_ctrl.rdQLenPdf::39                       0                       # What read queue length does an incoming req see (Count)
system.mem_ctrl.rdQLenPdf::40                       0                       # What read queue length does an incoming req see (Count)
system.mem_ctrl.rdQLenPdf::41                       0                       # What read queue length does an incoming req see (Count)
system.mem_ctrl.rdQLenPdf::42                       0                       # What read queue length does an incoming req see (Count)
system.mem_ctrl.rdQLenPdf::43                       0                       # What read queue length does an incoming req see (Count)
system.mem_ctrl.rdQLenPdf::44                       0                       # What read queue length does an incoming req see (Count)
system.mem_ctrl.rdQLenPdf::45                       0                       # What read queue length does an incoming req see (Count)
system.mem_ctrl.rdQLenPdf::46                       0                       # What read queue length does an incoming req see (Count)
system.mem_ctrl.rdQLenPdf::47                       0                       # What read queue length does an incoming req see (Count)
system.mem_ctrl.rdQLenPdf::48                       0                       # What read queue length does an incoming req see (Count)
system.mem_ctrl.rdQLenPdf::49                       0                       # What read queue length does an incoming req see (Count)
system.mem_ctrl.rdQLenPdf::50                       0                       # What read queue length does an incoming req see (Count)
system.mem_ctrl.rdQLenPdf::51                       0                       # What read queue length does an incoming req see (Count)
system.mem_ctrl.rdQLenPdf::52                       0                       # What read queue length does an incoming req see (Count)
system.mem_ctrl.rdQLenPdf::53                       0                       # What read queue length does an incoming req see (Count)
system.mem_ctrl.rdQLenPdf::54                       0                       # What read queue length does an incoming req see (Count)
system.mem_ctrl.rdQLenPdf::55                       0                       # What read queue length does an incoming req see (Count)
system.mem_ctrl.rdQLenPdf::56                       0                       # What read queue length does an incoming req see (Count)
system.mem_ctrl.rdQLenPdf::57                       0                       # What read queue length does an incoming req see (Count)
system.mem_ctrl.rdQLenPdf::58                       0                       # What read queue length does an incoming req see (Count)
system.mem_ctrl.rdQLenPdf::59                       0                       # What read queue length does an incoming req see (Count)
system.mem_ctrl.rdQLenPdf::60                       0                       # What read queue length does an incoming req see (Count)
system.mem_ctrl.rdQLenPdf::61                       0                       # What read queue length does an incoming req see (Count)
system.mem_ctrl.rdQLenPdf::62                       0                       # What read queue length does an incoming req see (Count)
system.mem_ctrl.rdQLenPdf::63                       0                       # What read queue length does an incoming req see (Count)
system.mem_ctrl.wrQLenPdf::0                        1                       # What write queue length does an incoming req see (Count)
system.mem_ctrl.wrQLenPdf::1                        1                       # What write queue length does an incoming req see (Count)
system.mem_ctrl.wrQLenPdf::2                        1                       # What write queue length does an incoming req see (Count)
system.mem_ctrl.wrQLenPdf::3                        1                       # What write queue length does an incoming req see (Count)
system.mem_ctrl.wrQLenPdf::4                        1                       # What write queue length does an incoming req see (Count)
system.mem_ctrl.wrQLenPdf::5                        1                       # What write queue length does an incoming req see (Count)
system.mem_ctrl.wrQLenPdf::6                        1                       # What write queue length does an incoming req see (Count)
system.mem_ctrl.wrQLenPdf::7                        1                       # What write queue length does an incoming req see (Count)
system.mem_ctrl.wrQLenPdf::8                        1                       # What write queue length does an incoming req see (Count)
system.mem_ctrl.wrQLenPdf::9                        1                       # What write queue length does an incoming req see (Count)
system.mem_ctrl.wrQLenPdf::10                       1                       # What write queue length does an incoming req see (Count)
system.mem_ctrl.wrQLenPdf::11                       1                       # What write queue length does an incoming req see (Count)
system.mem_ctrl.wrQLenPdf::12                       1                       # What write queue length does an incoming req see (Count)
system.mem_ctrl.wrQLenPdf::13                       1                       # What write queue length does an incoming req see (Count)
system.mem_ctrl.wrQLenPdf::14                       1                       # What write queue length does an incoming req see (Count)
system.mem_ctrl.wrQLenPdf::15                       1                       # What write queue length does an incoming req see (Count)
system.mem_ctrl.wrQLenPdf::16                       1                       # What write queue length does an incoming req see (Count)
system.mem_ctrl.wrQLenPdf::17                       1                       # What write queue length does an incoming req see (Count)
system.mem_ctrl.wrQLenPdf::18                       1                       # What write queue length does an incoming req see (Count)
system.mem_ctrl.wrQLenPdf::19                       1                       # What write queue length does an incoming req see (Count)
system.mem_ctrl.wrQLenPdf::20                       1                       # What write queue length does an incoming req see (Count)
system.mem_ctrl.wrQLenPdf::21                       1                       # What write queue length does an incoming req see (Count)
system.mem_ctrl.wrQLenPdf::22                       1                       # What write queue length does an incoming req see (Count)
system.mem_ctrl.wrQLenPdf::23                       1                       # What write queue length does an incoming req see (Count)
system.mem_ctrl.wrQLenPdf::24                       1                       # What write queue length does an incoming req see (Count)
system.mem_ctrl.wrQLenPdf::25                       1                       # What write queue length does an incoming req see (Count)
system.mem_ctrl.wrQLenPdf::26                       1                       # What write queue length does an incoming req see (Count)
system.mem_ctrl.wrQLenPdf::27                       1                       # What write queue length does an incoming req see (Count)
system.mem_ctrl.wrQLenPdf::28                       1                       # What write queue length does an incoming req see (Count)
system.mem_ctrl.wrQLenPdf::29                       1                       # What write queue length does an incoming req see (Count)
system.mem_ctrl.wrQLenPdf::30                       1                       # What write queue length does an incoming req see (Count)
system.mem_ctrl.wrQLenPdf::31                       1                       # What write queue length does an incoming req see (Count)
system.mem_ctrl.wrQLenPdf::32                       1                       # What write queue length does an incoming req see (Count)
system.mem_ctrl.wrQLenPdf::33                       1                       # What write queue length does an incoming req see (Count)
system.mem_ctrl.wrQLenPdf::34                       1                       # What write queue length does an incoming req see (Count)
system.mem_ctrl.wrQLenPdf::35                       1                       # What write queue length does an incoming req see (Count)
system.mem_ctrl.wrQLenPdf::36                       1                       # What write queue length does an incoming req see (Count)
system.mem_ctrl.wrQLenPdf::37                       1                       # What write queue length does an incoming req see (Count)
system.mem_ctrl.wrQLenPdf::38                       1                       # What write queue length does an incoming req see (Count)
system.mem_ctrl.wrQLenPdf::39                       1                       # What write queue length does an incoming req see (Count)
system.mem_ctrl.wrQLenPdf::40                       1                       # What write queue length does an incoming req see (Count)
system.mem_ctrl.wrQLenPdf::41                       1                       # What write queue length does an incoming req see (Count)
system.mem_ctrl.wrQLenPdf::42                       1                       # What write queue length does an incoming req see (Count)
system.mem_ctrl.wrQLenPdf::43                       1                       # What write queue length does an incoming req see (Count)
system.mem_ctrl.wrQLenPdf::44                       1                       # What write queue length does an incoming req see (Count)
system.mem_ctrl.wrQLenPdf::45                       1                       # What write queue length does an incoming req see (Count)
system.mem_ctrl.wrQLenPdf::46                       1                       # What write queue length does an incoming req see (Count)
system.mem_ctrl.wrQLenPdf::47                       1                       # What write queue length does an incoming req see (Count)
system.mem_ctrl.wrQLenPdf::48                       1                       # What write queue length does an incoming req see (Count)
system.mem_ctrl.wrQLenPdf::49                       1                       # What write queue length does an incoming req see (Count)
system.mem_ctrl.wrQLenPdf::50                       1                       # What write queue length does an incoming req see (Count)
system.mem_ctrl.wrQLenPdf::51                       1                       # What write queue length does an incoming req see (Count)
system.mem_ctrl.wrQLenPdf::52                       1                       # What write queue length does an incoming req see (Count)
system.mem_ctrl.wrQLenPdf::53                       1                       # What write queue length does an incoming req see (Count)
system.mem_ctrl.wrQLenPdf::54                       1                       # What write queue length does an incoming req see (Count)
system.mem_ctrl.wrQLenPdf::55                       1                       # What write queue length does an incoming req see (Count)
system.mem_ctrl.wrQLenPdf::56                       1                       # What write queue length does an incoming req see (Count)
system.mem_ctrl.wrQLenPdf::57                       1                       # What write queue length does an incoming req see (Count)
system.mem_ctrl.wrQLenPdf::58                       1                       # What write queue length does an incoming req see (Count)
system.mem_ctrl.wrQLenPdf::59                       1                       # What write queue length does an incoming req see (Count)
system.mem_ctrl.wrQLenPdf::60                       1                       # What write queue length does an incoming req see (Count)
system.mem_ctrl.wrQLenPdf::61                       1                       # What write queue length does an incoming req see (Count)
system.mem_ctrl.wrQLenPdf::62                       1                       # What write queue length does an incoming req see (Count)
system.mem_ctrl.wrQLenPdf::63                       2                       # What write queue length does an incoming req see (Count)
system.mem_ctrl.wrQLenPdf::64                       2                       # What write queue length does an incoming req see (Count)
system.mem_ctrl.wrQLenPdf::65                       2                       # What write queue length does an incoming req see (Count)
system.mem_ctrl.wrQLenPdf::66                       1                       # What write queue length does an incoming req see (Count)
system.mem_ctrl.wrQLenPdf::67                       2                       # What write queue length does an incoming req see (Count)
system.mem_ctrl.wrQLenPdf::68                       1                       # What write queue length does an incoming req see (Count)
system.mem_ctrl.wrQLenPdf::69                       2                       # What write queue length does an incoming req see (Count)
system.mem_ctrl.wrQLenPdf::70                       1                       # What write queue length does an incoming req see (Count)
system.mem_ctrl.wrQLenPdf::71                       1                       # What write queue length does an incoming req see (Count)
system.mem_ctrl.wrQLenPdf::72                       2                       # What write queue length does an incoming req see (Count)
system.mem_ctrl.wrQLenPdf::73                       1                       # What write queue length does an incoming req see (Count)
system.mem_ctrl.wrQLenPdf::74                       2                       # What write queue length does an incoming req see (Count)
system.mem_ctrl.wrQLenPdf::75                       1                       # What write queue length does an incoming req see (Count)
system.mem_ctrl.wrQLenPdf::76                       2                       # What write queue length does an incoming req see (Count)
system.mem_ctrl.wrQLenPdf::77                       1                       # What write queue length does an incoming req see (Count)
system.mem_ctrl.wrQLenPdf::78                       1                       # What write queue length does an incoming req see (Count)
system.mem_ctrl.wrQLenPdf::79                       2                       # What write queue length does an incoming req see (Count)
system.mem_ctrl.wrQLenPdf::80                       1                       # What write queue length does an incoming req see (Count)
system.mem_ctrl.wrQLenPdf::81                       2                       # What write queue length does an incoming req see (Count)
system.mem_ctrl.wrQLenPdf::82                       1                       # What write queue length does an incoming req see (Count)
system.mem_ctrl.wrQLenPdf::83                       2                       # What write queue length does an incoming req see (Count)
system.mem_ctrl.wrQLenPdf::84                       1                       # What write queue length does an incoming req see (Count)
system.mem_ctrl.wrQLenPdf::85                       1                       # What write queue length does an incoming req see (Count)
system.mem_ctrl.wrQLenPdf::86                       2                       # What write queue length does an incoming req see (Count)
system.mem_ctrl.wrQLenPdf::87                       1                       # What write queue length does an incoming req see (Count)
system.mem_ctrl.wrQLenPdf::88                       2                       # What write queue length does an incoming req see (Count)
system.mem_ctrl.wrQLenPdf::89                       1                       # What write queue length does an incoming req see (Count)
system.mem_ctrl.wrQLenPdf::90                       2                       # What write queue length does an incoming req see (Count)
system.mem_ctrl.wrQLenPdf::91                       1                       # What write queue length does an incoming req see (Count)
system.mem_ctrl.wrQLenPdf::92                       1                       # What write queue length does an incoming req see (Count)
system.mem_ctrl.wrQLenPdf::93                       2                       # What write queue length does an incoming req see (Count)
system.mem_ctrl.wrQLenPdf::94                       1                       # What write queue length does an incoming req see (Count)
system.mem_ctrl.wrQLenPdf::95                       2                       # What write queue length does an incoming req see (Count)
system.mem_ctrl.wrQLenPdf::96                       1                       # What write queue length does an incoming req see (Count)
system.mem_ctrl.wrQLenPdf::97                       2                       # What write queue length does an incoming req see (Count)
system.mem_ctrl.wrQLenPdf::98                       1                       # What write queue length does an incoming req see (Count)
system.mem_ctrl.wrQLenPdf::99                       1                       # What write queue length does an incoming req see (Count)
system.mem_ctrl.wrQLenPdf::100                      2                       # What write queue length does an incoming req see (Count)
system.mem_ctrl.wrQLenPdf::101                      1                       # What write queue length does an incoming req see (Count)
system.mem_ctrl.wrQLenPdf::102                      2                       # What write queue length does an incoming req see (Count)
system.mem_ctrl.wrQLenPdf::103                      1                       # What write queue length does an incoming req see (Count)
system.mem_ctrl.wrQLenPdf::104                      2                       # What write queue length does an incoming req see (Count)
system.mem_ctrl.wrQLenPdf::105                      1                       # What write queue length does an incoming req see (Count)
system.mem_ctrl.wrQLenPdf::106                      1                       # What write queue length does an incoming req see (Count)
system.mem_ctrl.wrQLenPdf::107                      2                       # What write queue length does an incoming req see (Count)
system.mem_ctrl.wrQLenPdf::108                      1                       # What write queue length does an incoming req see (Count)
system.mem_ctrl.wrQLenPdf::109                      2                       # What write queue length does an incoming req see (Count)
system.mem_ctrl.wrQLenPdf::110                      1                       # What write queue length does an incoming req see (Count)
system.mem_ctrl.wrQLenPdf::111                      2                       # What write queue length does an incoming req see (Count)
system.mem_ctrl.wrQLenPdf::112                      1                       # What write queue length does an incoming req see (Count)
system.mem_ctrl.wrQLenPdf::113                      1                       # What write queue length does an incoming req see (Count)
system.mem_ctrl.wrQLenPdf::114                      2                       # What write queue length does an incoming req see (Count)
system.mem_ctrl.wrQLenPdf::115                      1                       # What write queue length does an incoming req see (Count)
system.mem_ctrl.wrQLenPdf::116                      2                       # What write queue length does an incoming req see (Count)
system.mem_ctrl.wrQLenPdf::117                      1                       # What write queue length does an incoming req see (Count)
system.mem_ctrl.wrQLenPdf::118                      2                       # What write queue length does an incoming req see (Count)
system.mem_ctrl.wrQLenPdf::119                      1                       # What write queue length does an incoming req see (Count)
system.mem_ctrl.wrQLenPdf::120                      1                       # What write queue length does an incoming req see (Count)
system.mem_ctrl.wrQLenPdf::121                      2                       # What write queue length does an incoming req see (Count)
system.mem_ctrl.wrQLenPdf::122                      1                       # What write queue length does an incoming req see (Count)
system.mem_ctrl.wrQLenPdf::123                      2                       # What write queue length does an incoming req see (Count)
system.mem_ctrl.wrQLenPdf::124                      1                       # What write queue length does an incoming req see (Count)
system.mem_ctrl.wrQLenPdf::125                      2                       # What write queue length does an incoming req see (Count)
system.mem_ctrl.wrQLenPdf::126                      1                       # What write queue length does an incoming req see (Count)
system.mem_ctrl.wrQLenPdf::127                  30416                       # What write queue length does an incoming req see (Count)
system.mem_ctrl.rdPerTurnAround::samples            1                       # Reads before turning the bus around for writes (Count)
system.mem_ctrl.rdPerTurnAround::stdev            nan                       # Reads before turning the bus around for writes (Count)
system.mem_ctrl.rdPerTurnAround::0                  1    100.00%    100.00% # Reads before turning the bus around for writes (Count)
system.mem_ctrl.rdPerTurnAround::total              1                       # Reads before turning the bus around for writes (Count)
system.mem_ctrl.bytesReadWrQ                        0                       # Total number of bytes read from write queue (Byte)
system.mem_ctrl.bytesReadSys                        0                       # Total read bytes from the system interface side (Byte)
system.mem_ctrl.bytesWrittenSys               1956608                       # Total written bytes from the system interface side (Byte)
system.mem_ctrl.avgRdBWSys                 0.00000000                       # Average system read bandwidth in Byte/s ((Byte/Second))
system.mem_ctrl.avgWrBWSys               1956590453.29681492                       # Average system write bandwidth in Byte/s ((Byte/Second))
system.mem_ctrl.totGap                     1000007968                       # Total gap between requests (Tick)
system.mem_ctrl.avgGap                       32709.93                       # Average gap between requests ((Tick/Count))
system.mem_ctrl.requestorWriteBytes::generator      1948416                       # Per-requestor bytes write to memory (Byte)
system.mem_ctrl.requestorWriteRate::generator 1948398526.762012004852                       # Per-requestor bytes write to memory rate ((Byte/Second))
system.mem_ctrl.requestorWriteAccesses::generator        30572                       # Per-requestor write serviced memory accesses (Count)
system.mem_ctrl.requestorWriteTotalLat::generator 128307107056                       # Per-requestor write total memory access latency (Tick)
system.mem_ctrl.requestorWriteAvgLat::generator   4196883.00                       # Per-requestor write average memory access latency ((Tick/Count))
system.mem_ctrl.dram.bytesWritten::generator      1956608                       # Number of bytes written to this memory (Byte)
system.mem_ctrl.dram.bytesWritten::total      1956608                       # Number of bytes written to this memory (Byte)
system.mem_ctrl.dram.numWrites::generator        30572                       # Number of write requests responded to by this memory (Count)
system.mem_ctrl.dram.numWrites::total           30572                       # Number of write requests responded to by this memory (Count)
system.mem_ctrl.dram.bwWrite::generator    1956590453                       # Write bandwidth from this memory ((Byte/Second))
system.mem_ctrl.dram.bwWrite::total        1956590453                       # Write bandwidth from this memory ((Byte/Second))
system.mem_ctrl.dram.bwTotal::generator    1956590453                       # Total bandwidth to/from this memory ((Byte/Second))
system.mem_ctrl.dram.bwTotal::total        1956590453                       # Total bandwidth to/from this memory ((Byte/Second))
system.mem_ctrl.dram.readBursts                     0                       # Number of NVM read bursts (Count)
system.mem_ctrl.dram.writeBursts                30444                       # Number of NVM write bursts (Count)
system.mem_ctrl.dram.perBankRdBursts::0             0                       # Per bank write bursts (Count)
system.mem_ctrl.dram.perBankRdBursts::1             0                       # Per bank write bursts (Count)
system.mem_ctrl.dram.perBankRdBursts::2             0                       # Per bank write bursts (Count)
system.mem_ctrl.dram.perBankRdBursts::3             0                       # Per bank write bursts (Count)
system.mem_ctrl.dram.perBankRdBursts::4             0                       # Per bank write bursts (Count)
system.mem_ctrl.dram.perBankRdBursts::5             0                       # Per bank write bursts (Count)
system.mem_ctrl.dram.perBankRdBursts::6             0                       # Per bank write bursts (Count)
system.mem_ctrl.dram.perBankRdBursts::7             0                       # Per bank write bursts (Count)
system.mem_ctrl.dram.perBankRdBursts::8             0                       # Per bank write bursts (Count)
system.mem_ctrl.dram.perBankRdBursts::9             0                       # Per bank write bursts (Count)
system.mem_ctrl.dram.perBankRdBursts::10            0                       # Per bank write bursts (Count)
system.mem_ctrl.dram.perBankRdBursts::11            0                       # Per bank write bursts (Count)
system.mem_ctrl.dram.perBankRdBursts::12            0                       # Per bank write bursts (Count)
system.mem_ctrl.dram.perBankRdBursts::13            0                       # Per bank write bursts (Count)
system.mem_ctrl.dram.perBankRdBursts::14            0                       # Per bank write bursts (Count)
system.mem_ctrl.dram.perBankRdBursts::15            0                       # Per bank write bursts (Count)
system.mem_ctrl.dram.perBankWrBursts::0          1954                       # Per bank write bursts (Count)
system.mem_ctrl.dram.perBankWrBursts::1          1936                       # Per bank write bursts (Count)
system.mem_ctrl.dram.perBankWrBursts::2          1834                       # Per bank write bursts (Count)
system.mem_ctrl.dram.perBankWrBursts::3          1893                       # Per bank write bursts (Count)
system.mem_ctrl.dram.perBankWrBursts::4          1971                       # Per bank write bursts (Count)
system.mem_ctrl.dram.perBankWrBursts::5          1903                       # Per bank write bursts (Count)
system.mem_ctrl.dram.perBankWrBursts::6          1975                       # Per bank write bursts (Count)
system.mem_ctrl.dram.perBankWrBursts::7          1868                       # Per bank write bursts (Count)
system.mem_ctrl.dram.perBankWrBursts::8          1876                       # Per bank write bursts (Count)
system.mem_ctrl.dram.perBankWrBursts::9          1879                       # Per bank write bursts (Count)
system.mem_ctrl.dram.perBankWrBursts::10         1853                       # Per bank write bursts (Count)
system.mem_ctrl.dram.perBankWrBursts::11         1843                       # Per bank write bursts (Count)
system.mem_ctrl.dram.perBankWrBursts::12         1909                       # Per bank write bursts (Count)
system.mem_ctrl.dram.perBankWrBursts::13         1941                       # Per bank write bursts (Count)
system.mem_ctrl.dram.perBankWrBursts::14         1902                       # Per bank write bursts (Count)
system.mem_ctrl.dram.perBankWrBursts::15         1907                       # Per bank write bursts (Count)
system.mem_ctrl.dram.totQLat                        0                       # Total ticks spent queuing (Tick)
system.mem_ctrl.dram.totBusLat                      0                       # Total ticks spent in databus transfers (Tick)
system.mem_ctrl.dram.totMemAccLat                   0                       # Total ticks spent from burst creation until serviced by the NVM (Tick)
system.mem_ctrl.dram.avgQLat                      nan                       # Average queueing delay per NVM burst ((Tick/Count))
system.mem_ctrl.dram.avgBusLat                    nan                       # Average bus latency per NVM burst ((Tick/Count))
system.mem_ctrl.dram.avgMemAccLat                 nan                       # Average memory access latency per NVM burst ((Tick/Count))
system.mem_ctrl.dram.avgRdBW                     0.00                       # Average DRAM read bandwidth in MiBytes/s ((Byte/Second))
system.mem_ctrl.dram.avgWrBW                  1948.40                       # Average DRAM write bandwidth in MiBytes/s ((Byte/Second))
system.mem_ctrl.dram.peakBW                  19207.00                       # Theoretical peak bandwidth in MiByte/s ((Byte/Second))
system.mem_ctrl.dram.busUtil                    10.14                       # NVM Data bus utilization in percentage (Ratio)
system.mem_ctrl.dram.busUtilRead                 0.00                       # NVM Data bus read utilization in percentage (Ratio)
system.mem_ctrl.dram.busUtilWrite               10.14                       # NVM Data bus write utilization in percentage (Ratio)
system.mem_ctrl.dram.pendingWrites::samples        30316                       # Number of outstanding writes to NVM (Count)
system.mem_ctrl.dram.pendingWrites::mean   127.978625                       # Number of outstanding writes to NVM (Count)
system.mem_ctrl.dram.pendingWrites::gmean   127.978519                       # Number of outstanding writes to NVM (Count)
system.mem_ctrl.dram.pendingWrites::stdev     0.164482                       # Number of outstanding writes to NVM (Count)
system.mem_ctrl.dram.pendingWrites::124-125           10      0.03%      0.03% # Number of outstanding writes to NVM (Count)
system.mem_ctrl.dram.pendingWrites::126-127          555      1.83%      1.86% # Number of outstanding writes to NVM (Count)
system.mem_ctrl.dram.pendingWrites::128-129        29751     98.14%    100.00% # Number of outstanding writes to NVM (Count)
system.mem_ctrl.dram.pendingWrites::total        30316                       # Number of outstanding writes to NVM (Count)
system.mem_ctrl.dram.bytesPerBank::samples        30443                       # Bytes read within a bank before loading new bank (Byte)
system.mem_ctrl.dram.bytesPerBank::mean     64.002102                       # Bytes read within a bank before loading new bank (Byte)
system.mem_ctrl.dram.bytesPerBank::gmean    64.001457                       # Bytes read within a bank before loading new bank (Byte)
system.mem_ctrl.dram.bytesPerBank::stdev     0.366806                       # Bytes read within a bank before loading new bank (Byte)
system.mem_ctrl.dram.bytesPerBank::64           30442    100.00%    100.00% # Bytes read within a bank before loading new bank (Byte)
system.mem_ctrl.dram.bytesPerBank::128              1      0.00%    100.00% # Bytes read within a bank before loading new bank (Byte)
system.mem_ctrl.dram.bytesPerBank::total        30443                       # Bytes read within a bank before loading new bank (Byte)
system.mem_ctrl.dram.power_state.pwrStateResidencyTicks::UNDEFINED   1000008968                       # Cumulative time (in ticks) in various power states (Tick)
system.mem_ctrl.power_state.pwrStateResidencyTicks::UNDEFINED   1000008968                       # Cumulative time (in ticks) in various power states (Tick)
system.workload.inst.arm                            0                       # number of arm instructions executed (Count)
system.workload.inst.quiesce                        0                       # number of quiesce instructions executed (Count)

---------- End Simulation Statistics   ----------
